/*---------------------------------------------------------------------------*\
| =========                 |                                                 |
| \\      /  F ield         | OpenFOAM: The Open Source CFD Toolbox           |
|  \\    /   O peration     | Version:  2312                                  |
|   \\  /    A nd           | Website:  www.openfoam.com                      |
|    \\/     M anipulation  |                                                 |
\*---------------------------------------------------------------------------*/
Build  : _e651d635-20240208 OPENFOAM=2312 patch=240220 version=2312
Arch   : "LSB;label=32;scalar=64"
Exec   : /usr/lib/openfoam/openfoam2312/platforms/linux64GccDPInt32Opt/bin/simpleFoam -parallel
Date   : Nov 18 2025
Time   : 08:05:47
Host   : dmanzsvr
PID    : 4137337
I/O    : uncollated
Case   : /home/dman/Desktop/cfd/FreeCAD/case
nProcs : 4
Hosts  :
(
    (dmanzsvr 4)
)
Pstream initialized with:
    floatTransfer      : false
    nProcsSimpleSum    : 0
    nonBlockingExchange: 0 (tuning: 0)
    exchange algorithm : 0
    commsType          : nonBlocking
    polling iterations : 0
trapFpe: Floating point exception trapping enabled (FOAM_SIGFPE).
fileModificationChecking : Monitoring run-time modified files using timeStampMaster (fileModificationSkew 5, maxFileModificationPolls 20)
allowSystemOperations : Allowing user-supplied system call operations

// * * * * * * * * * * * * * * * * * * * * * * * * * * * * * * * * * * * * * //
Create time

Create mesh for time = 0


SIMPLE: convergence criteria
    field "(p|p_rgh)"	 tolerance 0.001
    field U	 tolerance 0.001
    field "(k|epsilon|omega|f|v2|nuTilda|gammaInt|ReThetat)"	 tolerance 0.001

Reading field p

Reading field U

Reading/calculating face flux field phi

Selecting incompressible transport model Newtonian
Selecting turbulence model type RAS
Selecting RAS turbulence model kOmegaSST
Selecting patchDistMethod meshWave
RAS
{
    RASModel        kOmegaSST;
    turbulence      on;
    printCoeffs     on;
    alphaK1         0.85;
    alphaK2         1;
    alphaOmega1     0.5;
    alphaOmega2     0.856;
    gamma1          0.555555555555556;
    gamma2          0.44;
    beta1           0.075;
    beta2           0.0828;
    betaStar        0.09;
    a1              0.31;
    b1              1;
    c1              10;
    F3              false;
    decayControl    false;
    kInf            0;
    omegaInf        0;
}

No MRF models present

No finite volume options present

Starting time loop

Time = 1

smoothSolver:  Solving for Ux, Initial residual = 0.0887316969115975, Final residual = 0.00246513239127262, No Iterations 2
smoothSolver:  Solving for Uy, Initial residual = 0.202877320000681, Final residual = 0.00429530106016201, No Iterations 2
smoothSolver:  Solving for Uz, Initial residual = 0.281147616339415, Final residual = 0.00621353050152583, No Iterations 2
GAMG:  Solving for p, Initial residual = 0.550852460693703, Final residual = 0.00273928574523145, No Iterations 6
GAMG:  Solving for p, Initial residual = 0.0816938932922693, Final residual = 0.000605678144387596, No Iterations 4
GAMG:  Solving for p, Initial residual = 0.016721320851674, Final residual = 0.000155585386183195, No Iterations 4
GAMG:  Solving for p, Initial residual = 0.00403345083223983, Final residual = 3.46152790557833e-05, No Iterations 4
GAMG:  Solving for p, Initial residual = 0.00128705960655838, Final residual = 1.23769385845021e-05, No Iterations 4
GAMG:  Solving for p, Initial residual = 0.000416158785622076, Final residual = 3.73070287516083e-06, No Iterations 4
time step continuity errors : sum local = 2.53021087526602e-05, global = -8.08155104785271e-07, cumulative = -8.08155104785271e-07
smoothSolver:  Solving for omega, Initial residual = 0.00937866003675958, Final residual = 0.00077474139610273, No Iterations 3
smoothSolver:  Solving for k, Initial residual = 0.999999999889653, Final residual = 0.089396954540273, No Iterations 2
ExecutionTime = 0.5 s  ClockTime = 0 s

Time = 2

smoothSolver:  Solving for Ux, Initial residual = 0.0467013416357528, Final residual = 0.00136261826647853, No Iterations 2
smoothSolver:  Solving for Uy, Initial residual = 0.0876239460895365, Final residual = 0.00206628304453648, No Iterations 2
smoothSolver:  Solving for Uz, Initial residual = 0.128899160056816, Final residual = 0.00286844808593526, No Iterations 2
GAMG:  Solving for p, Initial residual = 0.46028598576771, Final residual = 0.00268294595902343, No Iterations 6
GAMG:  Solving for p, Initial residual = 0.0603682318527062, Final residual = 0.000474084023413627, No Iterations 4
GAMG:  Solving for p, Initial residual = 0.0115312956707119, Final residual = 0.000115012106550512, No Iterations 4
GAMG:  Solving for p, Initial residual = 0.00285735871411037, Final residual = 2.70831295331432e-05, No Iterations 4
GAMG:  Solving for p, Initial residual = 0.000933525830792152, Final residual = 5.77198103108015e-06, No Iterations 5
GAMG:  Solving for p, Initial residual = 0.000297051437005086, Final residual = 2.80828636798779e-06, No Iterations 4
time step continuity errors : sum local = 2.1651764188477e-05, global = -3.27180607215011e-06, cumulative = -4.07996117693538e-06
smoothSolver:  Solving for omega, Initial residual = 0.0102563618813934, Final residual = 0.000859776104621255, No Iterations 3
smoothSolver:  Solving for k, Initial residual = 0.334990005929411, Final residual = 0.0266562545616689, No Iterations 2
ExecutionTime = 0.74 s  ClockTime = 1 s

Time = 3

smoothSolver:  Solving for Ux, Initial residual = 0.0607997286910594, Final residual = 0.00211013091723403, No Iterations 2
smoothSolver:  Solving for Uy, Initial residual = 0.0541021666405156, Final residual = 0.00209731869112907, No Iterations 2
smoothSolver:  Solving for Uz, Initial residual = 0.09774283949137, Final residual = 0.00401332385980808, No Iterations 2
GAMG:  Solving for p, Initial residual = 0.384432559017326, Final residual = 0.0031286279761959, No Iterations 5
GAMG:  Solving for p, Initial residual = 0.0418467375269599, Final residual = 0.000401337192003203, No Iterations 4
GAMG:  Solving for p, Initial residual = 0.00784584432307236, Final residual = 6.52013789578666e-05, No Iterations 5
GAMG:  Solving for p, Initial residual = 0.00207766734004659, Final residual = 1.71529714361212e-05, No Iterations 5
GAMG:  Solving for p, Initial residual = 0.000684416109158287, Final residual = 5.41263417955841e-06, No Iterations 5
GAMG:  Solving for p, Initial residual = 0.000232486929555412, Final residual = 1.94155178352057e-06, No Iterations 5
time step continuity errors : sum local = 1.60249838966729e-05, global = 1.02283042540552e-06, cumulative = -3.05713075152986e-06
smoothSolver:  Solving for omega, Initial residual = 0.0111418421229007, Final residual = 0.000965899548644921, No Iterations 3
smoothSolver:  Solving for k, Initial residual = 0.205576866835124, Final residual = 0.0147672216784931, No Iterations 2
ExecutionTime = 0.99 s  ClockTime = 1 s

Time = 4

smoothSolver:  Solving for Ux, Initial residual = 0.0622395820895964, Final residual = 0.002334508921799, No Iterations 2
smoothSolver:  Solving for Uy, Initial residual = 0.0343676448488446, Final residual = 0.001404463268109, No Iterations 2
smoothSolver:  Solving for Uz, Initial residual = 0.0679569540624334, Final residual = 0.00306953146341233, No Iterations 2
GAMG:  Solving for p, Initial residual = 0.394541872896043, Final residual = 0.00224786832396056, No Iterations 6
GAMG:  Solving for p, Initial residual = 0.0481196037041476, Final residual = 0.000471477022129934, No Iterations 4
GAMG:  Solving for p, Initial residual = 0.00853375909487283, Final residual = 5.82257106847513e-05, No Iterations 5
GAMG:  Solving for p, Initial residual = 0.0019721877486279, Final residual = 1.43668066755407e-05, No Iterations 5
GAMG:  Solving for p, Initial residual = 0.000629670358296122, Final residual = 6.21340308795663e-06, No Iterations 4
GAMG:  Solving for p, Initial residual = 0.000210878473071343, Final residual = 1.59992113870196e-06, No Iterations 5
time step continuity errors : sum local = 1.34132212671356e-05, global = 8.1307205532807e-07, cumulative = -2.24405869620179e-06
smoothSolver:  Solving for omega, Initial residual = 0.0114002225035305, Final residual = 0.000968566637136611, No Iterations 3
smoothSolver:  Solving for k, Initial residual = 0.153444558039586, Final residual = 0.0102960859960385, No Iterations 2
ExecutionTime = 1.24 s  ClockTime = 1 s

Time = 5

smoothSolver:  Solving for Ux, Initial residual = 0.0410518808510902, Final residual = 0.00156794094686947, No Iterations 2
smoothSolver:  Solving for Uy, Initial residual = 0.0223123873480533, Final residual = 0.000866308093315787, No Iterations 2
smoothSolver:  Solving for Uz, Initial residual = 0.0453453163145808, Final residual = 0.00165524072171174, No Iterations 2
GAMG:  Solving for p, Initial residual = 0.335297708326821, Final residual = 0.00225306898150765, No Iterations 6
GAMG:  Solving for p, Initial residual = 0.0501964945147693, Final residual = 0.000411932938622575, No Iterations 4
GAMG:  Solving for p, Initial residual = 0.00848960054914029, Final residual = 5.97443347065874e-05, No Iterations 5
GAMG:  Solving for p, Initial residual = 0.00194675882919389, Final residual = 1.3827326613114e-05, No Iterations 5
GAMG:  Solving for p, Initial residual = 0.000605142417463081, Final residual = 4.05322288711986e-06, No Iterations 5
GAMG:  Solving for p, Initial residual = 0.000199159089354964, Final residual = 1.42609254754837e-06, No Iterations 5
time step continuity errors : sum local = 9.79096146763395e-06, global = 7.37432051594397e-07, cumulative = -1.50662664460739e-06
smoothSolver:  Solving for omega, Initial residual = 0.0113768769226473, Final residual = 0.00096301822058547, No Iterations 3
smoothSolver:  Solving for k, Initial residual = 0.125758610010892, Final residual = 0.00803827675192385, No Iterations 2
ExecutionTime = 1.49 s  ClockTime = 1 s

Time = 6

smoothSolver:  Solving for Ux, Initial residual = 0.0408354015409394, Final residual = 0.0017039264893418, No Iterations 2
smoothSolver:  Solving for Uy, Initial residual = 0.0225533476835212, Final residual = 0.00111206121113161, No Iterations 2
smoothSolver:  Solving for Uz, Initial residual = 0.0546376337367201, Final residual = 0.00267482361824406, No Iterations 2
GAMG:  Solving for p, Initial residual = 0.313112986996063, Final residual = 0.00294608710379859, No Iterations 5
GAMG:  Solving for p, Initial residual = 0.0477223883264743, Final residual = 0.000439380962399343, No Iterations 4
GAMG:  Solving for p, Initial residual = 0.00878371636219109, Final residual = 8.57273959981299e-05, No Iterations 5
GAMG:  Solving for p, Initial residual = 0.00212399950865046, Final residual = 1.68854767032868e-05, No Iterations 5
GAMG:  Solving for p, Initial residual = 0.000640066807347686, Final residual = 5.00683663852701e-06, No Iterations 5
GAMG:  Solving for p, Initial residual = 0.000206273777767713, Final residual = 1.50075013327221e-06, No Iterations 5
time step continuity errors : sum local = 8.53166103414291e-06, global = -4.95331012758549e-07, cumulative = -2.00195765736594e-06
smoothSolver:  Solving for omega, Initial residual = 0.01130463839464, Final residual = 0.000934172224501509, No Iterations 3
smoothSolver:  Solving for k, Initial residual = 0.10980846123492, Final residual = 0.0067925813918875, No Iterations 2
ExecutionTime = 1.74 s  ClockTime = 2 s

Time = 7

smoothSolver:  Solving for Ux, Initial residual = 0.0335833622811275, Final residual = 0.00152900160997834, No Iterations 2
smoothSolver:  Solving for Uy, Initial residual = 0.0185815397412129, Final residual = 0.00095395791712794, No Iterations 2
smoothSolver:  Solving for Uz, Initial residual = 0.0461887778478093, Final residual = 0.00234885948231259, No Iterations 2
GAMG:  Solving for p, Initial residual = 0.317267212002399, Final residual = 0.00300108799068304, No Iterations 5
GAMG:  Solving for p, Initial residual = 0.0474886034705324, Final residual = 0.000436790248937756, No Iterations 4
GAMG:  Solving for p, Initial residual = 0.00830446891903847, Final residual = 5.89221804394456e-05, No Iterations 6
GAMG:  Solving for p, Initial residual = 0.00206819400106484, Final residual = 1.74234237740692e-05, No Iterations 5
GAMG:  Solving for p, Initial residual = 0.000618504523383509, Final residual = 5.58698058363322e-06, No Iterations 5
GAMG:  Solving for p, Initial residual = 0.000205134997909186, Final residual = 1.83783101973845e-06, No Iterations 5
time step continuity errors : sum local = 1.06441896033216e-05, global = -6.6037002491725e-07, cumulative = -2.66232768228319e-06
smoothSolver:  Solving for omega, Initial residual = 0.0113028664554321, Final residual = 0.000918744745126155, No Iterations 3
smoothSolver:  Solving for k, Initial residual = 0.100369377608624, Final residual = 0.0060684240889543, No Iterations 2
ExecutionTime = 1.98 s  ClockTime = 2 s

Time = 8

smoothSolver:  Solving for Ux, Initial residual = 0.0296059931798135, Final residual = 0.00143482791461008, No Iterations 2
smoothSolver:  Solving for Uy, Initial residual = 0.0154560580584332, Final residual = 0.000804757423963237, No Iterations 2
smoothSolver:  Solving for Uz, Initial residual = 0.0399231502776431, Final residual = 0.00202565047318903, No Iterations 2
GAMG:  Solving for p, Initial residual = 0.288980553099692, Final residual = 0.00204356269511276, No Iterations 5
GAMG:  Solving for p, Initial residual = 0.034035602980502, Final residual = 0.000333463943143576, No Iterations 4
GAMG:  Solving for p, Initial residual = 0.00580256885796278, Final residual = 4.65915309697342e-05, No Iterations 6
GAMG:  Solving for p, Initial residual = 0.00153561687889076, Final residual = 1.44217385340911e-05, No Iterations 5
GAMG:  Solving for p, Initial residual = 0.000475148564865051, Final residual = 3.54231431826379e-06, No Iterations 6
GAMG:  Solving for p, Initial residual = 0.000167710818407421, Final residual = 1.384295295198e-06, No Iterations 5
time step continuity errors : sum local = 8.64155864836685e-06, global = -5.69541704503742e-07, cumulative = -3.23186938678693e-06
smoothSolver:  Solving for omega, Initial residual = 0.0113360134777743, Final residual = 0.000907955870086738, No Iterations 3
smoothSolver:  Solving for k, Initial residual = 0.0950987086198554, Final residual = 0.005615782453627, No Iterations 2
ExecutionTime = 2.24 s  ClockTime = 2 s

Time = 9

smoothSolver:  Solving for Ux, Initial residual = 0.0257786460961286, Final residual = 0.00130907241789073, No Iterations 2
smoothSolver:  Solving for Uy, Initial residual = 0.0142931773200937, Final residual = 0.000768838434829555, No Iterations 2
smoothSolver:  Solving for Uz, Initial residual = 0.0396006731293678, Final residual = 0.00217600303439678, No Iterations 2
GAMG:  Solving for p, Initial residual = 0.264029069674355, Final residual = 0.00164859099282012, No Iterations 5
GAMG:  Solving for p, Initial residual = 0.030834821356378, Final residual = 0.000198570482127209, No Iterations 4
GAMG:  Solving for p, Initial residual = 0.0048320112234238, Final residual = 3.26734535011499e-05, No Iterations 5
GAMG:  Solving for p, Initial residual = 0.00115754772739558, Final residual = 8.08595380706429e-06, No Iterations 5
GAMG:  Solving for p, Initial residual = 0.000354136755742387, Final residual = 2.44814744184298e-06, No Iterations 5
GAMG:  Solving for p, Initial residual = 0.000116284481405936, Final residual = 8.01042168228292e-07, No Iterations 5
time step continuity errors : sum local = 5.30155787657346e-06, global = 3.04872128698207e-07, cumulative = -2.92699725808873e-06
smoothSolver:  Solving for omega, Initial residual = 0.0111945567367106, Final residual = 0.000877144567870681, No Iterations 3
smoothSolver:  Solving for k, Initial residual = 0.0929516243537254, Final residual = 0.00536083500161931, No Iterations 2
ExecutionTime = 2.48 s  ClockTime = 2 s

Time = 10

smoothSolver:  Solving for Ux, Initial residual = 0.0188491834126726, Final residual = 0.000999470075700896, No Iterations 2
smoothSolver:  Solving for Uy, Initial residual = 0.0124593091850607, Final residual = 0.000674577715718485, No Iterations 2
smoothSolver:  Solving for Uz, Initial residual = 0.034295853889732, Final residual = 0.00183691719800793, No Iterations 2
GAMG:  Solving for p, Initial residual = 0.240276947828485, Final residual = 0.00171768043634362, No Iterations 5
GAMG:  Solving for p, Initial residual = 0.031233653591041, Final residual = 0.000215641165100802, No Iterations 4
GAMG:  Solving for p, Initial residual = 0.00477843421330744, Final residual = 3.34428847535295e-05, No Iterations 5
GAMG:  Solving for p, Initial residual = 0.00109672943631653, Final residual = 1.05817953154922e-05, No Iterations 4
GAMG:  Solving for p, Initial residual = 0.000324190336052978, Final residual = 2.51654728442991e-06, No Iterations 5
GAMG:  Solving for p, Initial residual = 0.00010267013816602, Final residual = 8.03743214439061e-07, No Iterations 5
time step continuity errors : sum local = 5.22130250093064e-06, global = 3.5596844650868e-07, cumulative = -2.57102881158005e-06
smoothSolver:  Solving for omega, Initial residual = 0.0107413874276655, Final residual = 0.000819744667480891, No Iterations 3
smoothSolver:  Solving for k, Initial residual = 0.0934106758639166, Final residual = 0.00525246086375779, No Iterations 2
ExecutionTime = 2.73 s  ClockTime = 3 s

Time = 11

smoothSolver:  Solving for Ux, Initial residual = 0.0166394652215092, Final residual = 0.000831061674193428, No Iterations 2
smoothSolver:  Solving for Uy, Initial residual = 0.0113939226431126, Final residual = 0.000632377317424013, No Iterations 2
smoothSolver:  Solving for Uz, Initial residual = 0.0325026995082294, Final residual = 0.00173093426105852, No Iterations 2
GAMG:  Solving for p, Initial residual = 0.217405676905506, Final residual = 0.00131338923947968, No Iterations 5
GAMG:  Solving for p, Initial residual = 0.0291408419704557, Final residual = 0.000238293537489638, No Iterations 4
GAMG:  Solving for p, Initial residual = 0.00445939944287301, Final residual = 3.1145074083326e-05, No Iterations 5
GAMG:  Solving for p, Initial residual = 0.00104604797959587, Final residual = 7.22032195350367e-06, No Iterations 5
GAMG:  Solving for p, Initial residual = 0.000300560085154339, Final residual = 2.18888756986388e-06, No Iterations 5
GAMG:  Solving for p, Initial residual = 9.88723976317994e-05, Final residual = 7.3497415912611e-07, No Iterations 5
time step continuity errors : sum local = 4.31536691359092e-06, global = 2.87266994540167e-07, cumulative = -2.28376181703988e-06
smoothSolver:  Solving for omega, Initial residual = 0.0100785159763857, Final residual = 0.000747673880030491, No Iterations 3
smoothSolver:  Solving for k, Initial residual = 0.0966343694162306, Final residual = 0.00528394762576254, No Iterations 2
ExecutionTime = 2.98 s  ClockTime = 3 s

Time = 12

smoothSolver:  Solving for Ux, Initial residual = 0.0157216148262616, Final residual = 0.000777616728876753, No Iterations 2
smoothSolver:  Solving for Uy, Initial residual = 0.0105722013672105, Final residual = 0.000612728376711919, No Iterations 2
smoothSolver:  Solving for Uz, Initial residual = 0.0328640246274033, Final residual = 0.00181805680629475, No Iterations 2
GAMG:  Solving for p, Initial residual = 0.2140321886187, Final residual = 0.00132123835559836, No Iterations 5
GAMG:  Solving for p, Initial residual = 0.0277847360737174, Final residual = 0.000206455691975717, No Iterations 4
GAMG:  Solving for p, Initial residual = 0.00447443313941456, Final residual = 4.33671098495654e-05, No Iterations 4
GAMG:  Solving for p, Initial residual = 0.0010317355636416, Final residual = 8.21513807859721e-06, No Iterations 5
GAMG:  Solving for p, Initial residual = 0.000310739442204488, Final residual = 2.29837497866508e-06, No Iterations 5
GAMG:  Solving for p, Initial residual = 0.000100788947761436, Final residual = 8.11581218839787e-07, No Iterations 5
time step continuity errors : sum local = 4.44376912833149e-06, global = -2.92438959639095e-07, cumulative = -2.57620077667897e-06
smoothSolver:  Solving for omega, Initial residual = 0.00937585242664936, Final residual = 0.000672683334077694, No Iterations 3
smoothSolver:  Solving for k, Initial residual = 0.101807028598249, Final residual = 0.00541949518101536, No Iterations 2
ExecutionTime = 3.23 s  ClockTime = 3 s

Time = 13

smoothSolver:  Solving for Ux, Initial residual = 0.0143028945443856, Final residual = 0.000739328034137129, No Iterations 2
smoothSolver:  Solving for Uy, Initial residual = 0.00955128055716638, Final residual = 0.000565251006631692, No Iterations 2
smoothSolver:  Solving for Uz, Initial residual = 0.031879843756661, Final residual = 0.00178314982664312, No Iterations 2
GAMG:  Solving for p, Initial residual = 0.208295477907978, Final residual = 0.00202434961051298, No Iterations 4
GAMG:  Solving for p, Initial residual = 0.0256084967706444, Final residual = 0.000240399614365723, No Iterations 4
GAMG:  Solving for p, Initial residual = 0.00449992257342339, Final residual = 3.56545278990763e-05, No Iterations 5
GAMG:  Solving for p, Initial residual = 0.00103528233267451, Final residual = 8.51980916051932e-06, No Iterations 5
GAMG:  Solving for p, Initial residual = 0.00030837554656798, Final residual = 2.57705894376921e-06, No Iterations 5
GAMG:  Solving for p, Initial residual = 0.000101143519153624, Final residual = 8.79948870718705e-07, No Iterations 5
time step continuity errors : sum local = 4.82424418879777e-06, global = -3.34845509750945e-07, cumulative = -2.91104628642992e-06
smoothSolver:  Solving for omega, Initial residual = 0.00872321674939823, Final residual = 0.000600194982422196, No Iterations 3
smoothSolver:  Solving for k, Initial residual = 0.102596393899096, Final residual = 0.00539879284181982, No Iterations 2
ExecutionTime = 3.48 s  ClockTime = 3 s

Time = 14

smoothSolver:  Solving for Ux, Initial residual = 0.0139356730760492, Final residual = 0.000729453270417127, No Iterations 2
smoothSolver:  Solving for Uy, Initial residual = 0.00904318539946997, Final residual = 0.000536012836048332, No Iterations 2
smoothSolver:  Solving for Uz, Initial residual = 0.0315289604547526, Final residual = 0.00177928041423119, No Iterations 2
GAMG:  Solving for p, Initial residual = 0.195692891119574, Final residual = 0.00155755604886896, No Iterations 4
GAMG:  Solving for p, Initial residual = 0.0228319953914422, Final residual = 0.000157832511903754, No Iterations 5
GAMG:  Solving for p, Initial residual = 0.00356735756583608, Final residual = 2.53651838539145e-05, No Iterations 5
GAMG:  Solving for p, Initial residual = 0.000839496414132832, Final residual = 6.29922153628953e-06, No Iterations 5
GAMG:  Solving for p, Initial residual = 0.00023922987100189, Final residual = 2.08506750335308e-06, No Iterations 5
GAMG:  Solving for p, Initial residual = 7.89617647566865e-05, Final residual = 7.22445542172951e-07, No Iterations 5
time step continuity errors : sum local = 4.0598699481885e-06, global = 3.58271624771656e-07, cumulative = -2.55277466165826e-06
smoothSolver:  Solving for omega, Initial residual = 0.00817579525981597, Final residual = 0.000534528257989141, No Iterations 3
smoothSolver:  Solving for k, Initial residual = 0.0993543638814664, Final residual = 0.00521881760960407, No Iterations 2
ExecutionTime = 3.72 s  ClockTime = 4 s

Time = 15

smoothSolver:  Solving for Ux, Initial residual = 0.0130490259145063, Final residual = 0.000693223212304734, No Iterations 2
smoothSolver:  Solving for Uy, Initial residual = 0.00869283129917016, Final residual = 0.000515790478929928, No Iterations 2
smoothSolver:  Solving for Uz, Initial residual = 0.03063952927184, Final residual = 0.00174245708260415, No Iterations 2
GAMG:  Solving for p, Initial residual = 0.187531384905042, Final residual = 0.0015047299192486, No Iterations 4
GAMG:  Solving for p, Initial residual = 0.022346484628501, Final residual = 0.00019665333083832, No Iterations 4
GAMG:  Solving for p, Initial residual = 0.00348802143751585, Final residual = 2.82256220840042e-05, No Iterations 5
GAMG:  Solving for p, Initial residual = 0.000800499406440714, Final residual = 6.77868638075432e-06, No Iterations 5
GAMG:  Solving for p, Initial residual = 0.00023403732051061, Final residual = 2.2053304731982e-06, No Iterations 5
GAMG:  Solving for p, Initial residual = 7.70028553740179e-05, Final residual = 7.41709704465538e-07, No Iterations 5
time step continuity errors : sum local = 4.24951575356889e-06, global = 4.16733954352514e-07, cumulative = -2.13604070730575e-06
smoothSolver:  Solving for omega, Initial residual = 0.00771113743301178, Final residual = 0.000475917645135705, No Iterations 3
smoothSolver:  Solving for k, Initial residual = 0.0942697336012632, Final residual = 0.00496375526695236, No Iterations 2
ExecutionTime = 3.97 s  ClockTime = 4 s

Time = 16

smoothSolver:  Solving for Ux, Initial residual = 0.0120118107683849, Final residual = 0.000637875247177073, No Iterations 2
smoothSolver:  Solving for Uy, Initial residual = 0.00837018159032759, Final residual = 0.00049452576174665, No Iterations 2
smoothSolver:  Solving for Uz, Initial residual = 0.029406759680636, Final residual = 0.00167645548610772, No Iterations 2
GAMG:  Solving for p, Initial residual = 0.180588336300918, Final residual = 0.00146866812510618, No Iterations 4
GAMG:  Solving for p, Initial residual = 0.0215733932236287, Final residual = 0.000125591511606795, No Iterations 5
GAMG:  Solving for p, Initial residual = 0.00325451725880341, Final residual = 3.16920532886433e-05, No Iterations 4
GAMG:  Solving for p, Initial residual = 0.000754946674661886, Final residual = 6.14314651669271e-06, No Iterations 5
GAMG:  Solving for p, Initial residual = 0.000223762617158878, Final residual = 1.8242760271924e-06, No Iterations 5
GAMG:  Solving for p, Initial residual = 7.31271545187271e-05, Final residual = 5.85432873705046e-07, No Iterations 5
time step continuity errors : sum local = 3.32650529367717e-06, global = 2.37886071021979e-07, cumulative = -1.89815463628377e-06
smoothSolver:  Solving for omega, Initial residual = 0.0073271998123991, Final residual = 0.000425691299027197, No Iterations 3
smoothSolver:  Solving for k, Initial residual = 0.0881123902605227, Final residual = 0.00465723749947298, No Iterations 2
ExecutionTime = 4.22 s  ClockTime = 4 s

Time = 17

smoothSolver:  Solving for Ux, Initial residual = 0.0116707491322605, Final residual = 0.000604180160135965, No Iterations 2
smoothSolver:  Solving for Uy, Initial residual = 0.0081511385809937, Final residual = 0.000482278708044432, No Iterations 2
smoothSolver:  Solving for Uz, Initial residual = 0.0293461720629549, Final residual = 0.00168193770925529, No Iterations 2
GAMG:  Solving for p, Initial residual = 0.174547050380315, Final residual = 0.00141085964001734, No Iterations 4
GAMG:  Solving for p, Initial residual = 0.0202008484060978, Final residual = 0.000127961444152874, No Iterations 5
GAMG:  Solving for p, Initial residual = 0.00311607726082204, Final residual = 2.06417954793074e-05, No Iterations 5
GAMG:  Solving for p, Initial residual = 0.00072706784427319, Final residual = 5.24756136644967e-06, No Iterations 5
GAMG:  Solving for p, Initial residual = 0.000210891160483798, Final residual = 1.64114852049513e-06, No Iterations 5
GAMG:  Solving for p, Initial residual = 6.90432079168918e-05, Final residual = 5.6687019100433e-07, No Iterations 5
time step continuity errors : sum local = 3.1723479130688e-06, global = -2.39038239139767e-07, cumulative = -2.13719287542354e-06
smoothSolver:  Solving for omega, Initial residual = 0.00701208021295173, Final residual = 0.000382904426176112, No Iterations 3
smoothSolver:  Solving for k, Initial residual = 0.0816708500752253, Final residual = 0.00433674431700576, No Iterations 2
ExecutionTime = 4.46 s  ClockTime = 4 s

Time = 18

smoothSolver:  Solving for Ux, Initial residual = 0.0115542467673649, Final residual = 0.000586950608060618, No Iterations 2
smoothSolver:  Solving for Uy, Initial residual = 0.00802890969895006, Final residual = 0.000478747469844464, No Iterations 2
smoothSolver:  Solving for Uz, Initial residual = 0.0297361786222623, Final residual = 0.00170817135969227, No Iterations 2
GAMG:  Solving for p, Initial residual = 0.171396292703076, Final residual = 0.00134822922778146, No Iterations 4
GAMG:  Solving for p, Initial residual = 0.0190072463697363, Final residual = 0.000116804318203318, No Iterations 5
GAMG:  Solving for p, Initial residual = 0.00298237038809159, Final residual = 2.79100676350366e-05, No Iterations 4
GAMG:  Solving for p, Initial residual = 0.000685728561772358, Final residual = 6.0759225727068e-06, No Iterations 5
GAMG:  Solving for p, Initial residual = 0.000201357620856311, Final residual = 1.74081196359412e-06, No Iterations 5
GAMG:  Solving for p, Initial residual = 6.55927164169298e-05, Final residual = 5.9477701933063e-07, No Iterations 5
time step continuity errors : sum local = 3.34268456449919e-06, global = -2.51047752829698e-07, cumulative = -2.38824062825324e-06
smoothSolver:  Solving for omega, Initial residual = 0.0067652659827211, Final residual = 0.000347255271039341, No Iterations 3
smoothSolver:  Solving for k, Initial residual = 0.0753432952150402, Final residual = 0.00402318259377819, No Iterations 2
ExecutionTime = 4.71 s  ClockTime = 5 s

Time = 19

smoothSolver:  Solving for Ux, Initial residual = 0.0115807129977573, Final residual = 0.000577312971802924, No Iterations 2
smoothSolver:  Solving for Uy, Initial residual = 0.00790867013622784, Final residual = 0.000473942193754605, No Iterations 2
smoothSolver:  Solving for Uz, Initial residual = 0.0297820735691676, Final residual = 0.00170236988370581, No Iterations 2
GAMG:  Solving for p, Initial residual = 0.167451494163439, Final residual = 0.00121722959281551, No Iterations 4
GAMG:  Solving for p, Initial residual = 0.0179803212733111, Final residual = 0.000177813953265958, No Iterations 4
GAMG:  Solving for p, Initial residual = 0.002782479694034, Final residual = 2.2470036100558e-05, No Iterations 5
GAMG:  Solving for p, Initial residual = 0.000662154149279601, Final residual = 5.57034863080865e-06, No Iterations 5
GAMG:  Solving for p, Initial residual = 0.000192591952505089, Final residual = 1.6400500863348e-06, No Iterations 5
GAMG:  Solving for p, Initial residual = 6.38865618005503e-05, Final residual = 5.92774325126636e-07, No Iterations 5
time step continuity errors : sum local = 3.37460005291145e-06, global = -3.36258571030587e-07, cumulative = -2.72449919928382e-06
smoothSolver:  Solving for omega, Initial residual = 0.00658387462129445, Final residual = 0.000317899050313183, No Iterations 3
smoothSolver:  Solving for k, Initial residual = 0.0692722711841556, Final residual = 0.00371953358610789, No Iterations 2
ExecutionTime = 4.95 s  ClockTime = 5 s

Time = 20

smoothSolver:  Solving for Ux, Initial residual = 0.0115275386028613, Final residual = 0.000564042695960891, No Iterations 2
smoothSolver:  Solving for Uy, Initial residual = 0.00784493366297126, Final residual = 0.00046811707220403, No Iterations 2
smoothSolver:  Solving for Uz, Initial residual = 0.029770708116099, Final residual = 0.00168074181681786, No Iterations 2
GAMG:  Solving for p, Initial residual = 0.162181522567518, Final residual = 0.00114957269616447, No Iterations 4
GAMG:  Solving for p, Initial residual = 0.0175903409304468, Final residual = 0.000161073136613953, No Iterations 4
GAMG:  Solving for p, Initial residual = 0.00265137707788042, Final residual = 1.87157754282471e-05, No Iterations 5
GAMG:  Solving for p, Initial residual = 0.00062994134255231, Final residual = 6.25172481754392e-06, No Iterations 4
GAMG:  Solving for p, Initial residual = 0.000178803934047388, Final residual = 1.53360358658641e-06, No Iterations 5
GAMG:  Solving for p, Initial residual = 5.96314087014883e-05, Final residual = 4.70127204321066e-07, No Iterations 5
time step continuity errors : sum local = 2.69676333828795e-06, global = 2.21238746234414e-07, cumulative = -2.50326045304941e-06
smoothSolver:  Solving for omega, Initial residual = 0.00645762024984331, Final residual = 0.000294966331534785, No Iterations 3
smoothSolver:  Solving for k, Initial residual = 0.0634732051479389, Final residual = 0.00343046666643127, No Iterations 2
ExecutionTime = 5.18 s  ClockTime = 5 s

Time = 21

smoothSolver:  Solving for Ux, Initial residual = 0.0114016674123264, Final residual = 0.000553661892266653, No Iterations 2
smoothSolver:  Solving for Uy, Initial residual = 0.00781195809103318, Final residual = 0.00046101871771463, No Iterations 2
smoothSolver:  Solving for Uz, Initial residual = 0.0298293877181414, Final residual = 0.00165405254755644, No Iterations 2
GAMG:  Solving for p, Initial residual = 0.160085761219178, Final residual = 0.00111617434212811, No Iterations 4
GAMG:  Solving for p, Initial residual = 0.0174063162007099, Final residual = 0.000154801081946691, No Iterations 4
GAMG:  Solving for p, Initial residual = 0.00255779392705178, Final residual = 2.43356449997118e-05, No Iterations 4
GAMG:  Solving for p, Initial residual = 0.000576853730263404, Final residual = 4.25740886717063e-06, No Iterations 5
GAMG:  Solving for p, Initial residual = 0.000164068427779693, Final residual = 1.54837046800468e-06, No Iterations 4
GAMG:  Solving for p, Initial residual = 5.24840879417959e-05, Final residual = 3.86011439430042e-07, No Iterations 5
time step continuity errors : sum local = 2.21959833202286e-06, global = 1.46664000061853e-07, cumulative = -2.35659645298756e-06
smoothSolver:  Solving for omega, Initial residual = 0.00637032309292055, Final residual = 0.000619041211170365, No Iterations 2
smoothSolver:  Solving for k, Initial residual = 0.0579610699154844, Final residual = 0.00315602816527025, No Iterations 2
ExecutionTime = 5.42 s  ClockTime = 5 s

Time = 22

smoothSolver:  Solving for Ux, Initial residual = 0.0114315154541323, Final residual = 0.000554250739013194, No Iterations 2
smoothSolver:  Solving for Uy, Initial residual = 0.00779043933840261, Final residual = 0.000453263885440351, No Iterations 2
smoothSolver:  Solving for Uz, Initial residual = 0.0298725914099683, Final residual = 0.00163671186222807, No Iterations 2
GAMG:  Solving for p, Initial residual = 0.157379087914911, Final residual = 0.0010447212013413, No Iterations 4
GAMG:  Solving for p, Initial residual = 0.0166207188772292, Final residual = 0.000143043121658725, No Iterations 4
GAMG:  Solving for p, Initial residual = 0.00238254661534398, Final residual = 1.54848111523137e-05, No Iterations 5
GAMG:  Solving for p, Initial residual = 0.00054501013474847, Final residual = 4.99702128318459e-06, No Iterations 4
GAMG:  Solving for p, Initial residual = 0.000155824422737386, Final residual = 1.05911544043517e-06, No Iterations 5
GAMG:  Solving for p, Initial residual = 5.06962686931432e-05, Final residual = 4.89095090628424e-07, No Iterations 4
time step continuity errors : sum local = 2.82542348642657e-06, global = 1.95095633282017e-07, cumulative = -2.16150081970554e-06
smoothSolver:  Solving for omega, Initial residual = 0.00633043248498855, Final residual = 0.000602431162158368, No Iterations 2
smoothSolver:  Solving for k, Initial residual = 0.0527613760081268, Final residual = 0.00289806291268238, No Iterations 2
ExecutionTime = 5.66 s  ClockTime = 6 s

Time = 23

smoothSolver:  Solving for Ux, Initial residual = 0.011574295693126, Final residual = 0.00055690670902327, No Iterations 2
smoothSolver:  Solving for Uy, Initial residual = 0.00781601000331219, Final residual = 0.000446361373838975, No Iterations 2
smoothSolver:  Solving for Uz, Initial residual = 0.029728308385379, Final residual = 0.00161474347091632, No Iterations 2
GAMG:  Solving for p, Initial residual = 0.154223490966757, Final residual = 0.000968285408560042, No Iterations 4
GAMG:  Solving for p, Initial residual = 0.0155299499398584, Final residual = 0.000130324125186564, No Iterations 4
GAMG:  Solving for p, Initial residual = 0.00226422541892329, Final residual = 1.97382886002912e-05, No Iterations 4
GAMG:  Solving for p, Initial residual = 0.000529414045294465, Final residual = 3.63132610088803e-06, No Iterations 5
GAMG:  Solving for p, Initial residual = 0.000151351820195018, Final residual = 1.49137333282218e-06, No Iterations 4
GAMG:  Solving for p, Initial residual = 4.87847578858758e-05, Final residual = 4.08746714128877e-07, No Iterations 5
time step continuity errors : sum local = 2.37451057228157e-06, global = -1.55461157026352e-07, cumulative = -2.31696197673189e-06
smoothSolver:  Solving for omega, Initial residual = 0.00630816997741804, Final residual = 0.000593046608979944, No Iterations 2
smoothSolver:  Solving for k, Initial residual = 0.0478933011479644, Final residual = 0.00265657639830515, No Iterations 2
ExecutionTime = 5.89 s  ClockTime = 6 s

Time = 24

smoothSolver:  Solving for Ux, Initial residual = 0.0117531327429348, Final residual = 0.000555870374096483, No Iterations 2
smoothSolver:  Solving for Uy, Initial residual = 0.00784868307756745, Final residual = 0.000440651546113077, No Iterations 2
smoothSolver:  Solving for Uz, Initial residual = 0.0290322937865884, Final residual = 0.00155628009811215, No Iterations 2
GAMG:  Solving for p, Initial residual = 0.151855305005138, Final residual = 0.000865004576852122, No Iterations 4
GAMG:  Solving for p, Initial residual = 0.0147834381564036, Final residual = 0.000118500754181224, No Iterations 4
GAMG:  Solving for p, Initial residual = 0.00217643446378077, Final residual = 1.81553305408687e-05, No Iterations 4
GAMG:  Solving for p, Initial residual = 0.000497774976046051, Final residual = 3.36202701304705e-06, No Iterations 5
GAMG:  Solving for p, Initial residual = 0.000143312004342544, Final residual = 1.41599464603811e-06, No Iterations 4
GAMG:  Solving for p, Initial residual = 4.59136806805352e-05, Final residual = 3.87000526996486e-07, No Iterations 5
time step continuity errors : sum local = 2.26719105166596e-06, global = -1.49594798564825e-07, cumulative = -2.46655677529672e-06
smoothSolver:  Solving for omega, Initial residual = 0.00629751750327655, Final residual = 0.00058772123824486, No Iterations 2
smoothSolver:  Solving for k, Initial residual = 0.0433725178078142, Final residual = 0.00243220206675635, No Iterations 2
ExecutionTime = 6.13 s  ClockTime = 6 s

Time = 25

smoothSolver:  Solving for Ux, Initial residual = 0.0118594421690424, Final residual = 0.000552176149320316, No Iterations 2
smoothSolver:  Solving for Uy, Initial residual = 0.00786599951841262, Final residual = 0.00043574261517589, No Iterations 2
smoothSolver:  Solving for Uz, Initial residual = 0.0282313727877395, Final residual = 0.00148612998726696, No Iterations 2
GAMG:  Solving for p, Initial residual = 0.151615752504268, Final residual = 0.000823158525214005, No Iterations 4
GAMG:  Solving for p, Initial residual = 0.0141453662755848, Final residual = 0.000102303935608915, No Iterations 4
GAMG:  Solving for p, Initial residual = 0.00203623357465203, Final residual = 1.28547631902054e-05, No Iterations 5
GAMG:  Solving for p, Initial residual = 0.000467873801760732, Final residual = 4.52802883323156e-06, No Iterations 4
GAMG:  Solving for p, Initial residual = 0.000134799424579489, Final residual = 1.03044806018071e-06, No Iterations 5
GAMG:  Solving for p, Initial residual = 4.44918963057967e-05, Final residual = 3.50951292324257e-07, No Iterations 5
time step continuity errors : sum local = 2.081313382777e-06, global = -1.44054753699168e-07, cumulative = -2.61061152899588e-06
smoothSolver:  Solving for omega, Initial residual = 0.00630336079581341, Final residual = 0.00058628618812989, No Iterations 2
smoothSolver:  Solving for k, Initial residual = 0.039197232820859, Final residual = 0.00222441643838793, No Iterations 2
ExecutionTime = 6.38 s  ClockTime = 6 s

Time = 26

smoothSolver:  Solving for Ux, Initial residual = 0.0119213236607942, Final residual = 0.000547329494080268, No Iterations 2
smoothSolver:  Solving for Uy, Initial residual = 0.00790046001032386, Final residual = 0.000430905994880043, No Iterations 2
smoothSolver:  Solving for Uz, Initial residual = 0.0274637201694113, Final residual = 0.00142138694237369, No Iterations 2
GAMG:  Solving for p, Initial residual = 0.15019980498344, Final residual = 0.000832323114274074, No Iterations 4
GAMG:  Solving for p, Initial residual = 0.0134689776795833, Final residual = 0.000106824331095132, No Iterations 4
GAMG:  Solving for p, Initial residual = 0.00194404190713809, Final residual = 1.86671277469622e-05, No Iterations 4
GAMG:  Solving for p, Initial residual = 0.000441755748508286, Final residual = 3.4397511891999e-06, No Iterations 5
GAMG:  Solving for p, Initial residual = 0.000126790918495661, Final residual = 9.9832428246609e-07, No Iterations 5
GAMG:  Solving for p, Initial residual = 4.03324322414793e-05, Final residual = 3.45207428415551e-07, No Iterations 5
time step continuity errors : sum local = 2.08265177229235e-06, global = 1.52914727213547e-07, cumulative = -2.45769680178234e-06
smoothSolver:  Solving for omega, Initial residual = 0.00629406175925652, Final residual = 0.000586869234675197, No Iterations 2
smoothSolver:  Solving for k, Initial residual = 0.0353672991227644, Final residual = 0.00203370196695132, No Iterations 2
ExecutionTime = 6.62 s  ClockTime = 7 s

Time = 27

smoothSolver:  Solving for Ux, Initial residual = 0.0119261179366727, Final residual = 0.000541534956291312, No Iterations 2
smoothSolver:  Solving for Uy, Initial residual = 0.00788272228271366, Final residual = 0.000421680294632147, No Iterations 2
smoothSolver:  Solving for Uz, Initial residual = 0.0268657292893165, Final residual = 0.00135862967823432, No Iterations 2
GAMG:  Solving for p, Initial residual = 0.147950649920278, Final residual = 0.000789864018417669, No Iterations 4
GAMG:  Solving for p, Initial residual = 0.0129021366057035, Final residual = 0.000107975489092366, No Iterations 4
GAMG:  Solving for p, Initial residual = 0.00179945439838249, Final residual = 1.2167620214281e-05, No Iterations 5
GAMG:  Solving for p, Initial residual = 0.000414044450284718, Final residual = 4.12197936157918e-06, No Iterations 4
GAMG:  Solving for p, Initial residual = 0.000114975958308099, Final residual = 9.6629722825212e-07, No Iterations 5
GAMG:  Solving for p, Initial residual = 3.73122969374633e-05, Final residual = 3.2012700364012e-07, No Iterations 5
time step continuity errors : sum local = 1.95454233415848e-06, global = 1.48454709416635e-07, cumulative = -2.3092420923657e-06
smoothSolver:  Solving for omega, Initial residual = 0.00630239617897692, Final residual = 0.000590456952704771, No Iterations 2
smoothSolver:  Solving for k, Initial residual = 0.0318953513232638, Final residual = 0.00186276796901874, No Iterations 2
ExecutionTime = 6.86 s  ClockTime = 7 s

Time = 28

smoothSolver:  Solving for Ux, Initial residual = 0.0119797787938226, Final residual = 0.000539105545363899, No Iterations 2
smoothSolver:  Solving for Uy, Initial residual = 0.00780683417484727, Final residual = 0.00040981104403163, No Iterations 2
smoothSolver:  Solving for Uz, Initial residual = 0.0262567544369599, Final residual = 0.00129732155980644, No Iterations 2
GAMG:  Solving for p, Initial residual = 0.144407110781049, Final residual = 0.00071530403977799, No Iterations 4
GAMG:  Solving for p, Initial residual = 0.0123265236753926, Final residual = 0.000105208358364589, No Iterations 4
GAMG:  Solving for p, Initial residual = 0.00172840415618733, Final residual = 1.28332685414329e-05, No Iterations 5
GAMG:  Solving for p, Initial residual = 0.000390851450836351, Final residual = 2.72866544604139e-06, No Iterations 5
GAMG:  Solving for p, Initial residual = 0.000109443218045796, Final residual = 7.79521831739573e-07, No Iterations 5
GAMG:  Solving for p, Initial residual = 3.48879931766577e-05, Final residual = 2.73017937924358e-07, No Iterations 5
time step continuity errors : sum local = 1.67365506151351e-06, global = -1.28525565053451e-07, cumulative = -2.43776765741915e-06
smoothSolver:  Solving for omega, Initial residual = 0.00629510357398212, Final residual = 0.00059224313024662, No Iterations 2
smoothSolver:  Solving for k, Initial residual = 0.0287372742797666, Final residual = 0.00170585632066116, No Iterations 2
ExecutionTime = 7.11 s  ClockTime = 7 s

Time = 29

smoothSolver:  Solving for Ux, Initial residual = 0.0121069680431406, Final residual = 0.000537679744660859, No Iterations 2
smoothSolver:  Solving for Uy, Initial residual = 0.00775014725950726, Final residual = 0.000399493803853685, No Iterations 2
smoothSolver:  Solving for Uz, Initial residual = 0.0255635767521112, Final residual = 0.0012387706888112, No Iterations 2
GAMG:  Solving for p, Initial residual = 0.140480114387274, Final residual = 0.000669670759304236, No Iterations 4
GAMG:  Solving for p, Initial residual = 0.0120314310151305, Final residual = 9.54013612918247e-05, No Iterations 4
GAMG:  Solving for p, Initial residual = 0.0017260085576515, Final residual = 1.54808063366623e-05, No Iterations 4
GAMG:  Solving for p, Initial residual = 0.000395261444331199, Final residual = 2.87392160497706e-06, No Iterations 5
GAMG:  Solving for p, Initial residual = 0.00011110608955866, Final residual = 7.77130495955545e-07, No Iterations 5
GAMG:  Solving for p, Initial residual = 3.49084917176713e-05, Final residual = 2.70336151836505e-07, No Iterations 5
time step continuity errors : sum local = 1.66347138077929e-06, global = -1.21771774649721e-07, cumulative = -2.55953943206887e-06
smoothSolver:  Solving for omega, Initial residual = 0.00628422036708854, Final residual = 0.000588830479341429, No Iterations 2
smoothSolver:  Solving for k, Initial residual = 0.025888560688348, Final residual = 0.00156165761994584, No Iterations 2
ExecutionTime = 7.35 s  ClockTime = 7 s

Time = 30

smoothSolver:  Solving for Ux, Initial residual = 0.0121184023522074, Final residual = 0.000529757077296537, No Iterations 2
smoothSolver:  Solving for Uy, Initial residual = 0.00769343223536596, Final residual = 0.000389604209569403, No Iterations 2
smoothSolver:  Solving for Uz, Initial residual = 0.024936183778829, Final residual = 0.00118643104854215, No Iterations 2
GAMG:  Solving for p, Initial residual = 0.136357459541704, Final residual = 0.00135304838948771, No Iterations 3
GAMG:  Solving for p, Initial residual = 0.0118831905522392, Final residual = 6.86263423498012e-05, No Iterations 5
GAMG:  Solving for p, Initial residual = 0.00191917044785636, Final residual = 1.4972566675828e-05, No Iterations 4
GAMG:  Solving for p, Initial residual = 0.000406456977339276, Final residual = 2.8615677791436e-06, No Iterations 5
GAMG:  Solving for p, Initial residual = 0.000115134160075554, Final residual = 1.09068855288605e-06, No Iterations 4
GAMG:  Solving for p, Initial residual = 3.61446183733037e-05, Final residual = 3.06238362601095e-07, No Iterations 5
time step continuity errors : sum local = 1.88750876933179e-06, global = -1.39165723538184e-07, cumulative = -2.69870515560706e-06
smoothSolver:  Solving for omega, Initial residual = 0.00629728577854243, Final residual = 0.000588498310674997, No Iterations 2
smoothSolver:  Solving for k, Initial residual = 0.0233653463300074, Final residual = 0.00143824326222245, No Iterations 2
ExecutionTime = 7.59 s  ClockTime = 8 s

Time = 31

smoothSolver:  Solving for Ux, Initial residual = 0.0121681337127797, Final residual = 0.000520055812650079, No Iterations 2
smoothSolver:  Solving for Uy, Initial residual = 0.00766875701070796, Final residual = 0.000382436925606472, No Iterations 2
smoothSolver:  Solving for Uz, Initial residual = 0.0244955532794916, Final residual = 0.0011439777713614, No Iterations 2
GAMG:  Solving for p, Initial residual = 0.133731207989052, Final residual = 0.00127151391250109, No Iterations 3
GAMG:  Solving for p, Initial residual = 0.0114136418470051, Final residual = 0.000108892041750444, No Iterations 4
GAMG:  Solving for p, Initial residual = 0.0018557468046568, Final residual = 1.33331661859417e-05, No Iterations 5
GAMG:  Solving for p, Initial residual = 0.000396708614300478, Final residual = 3.05337477293295e-06, No Iterations 5
GAMG:  Solving for p, Initial residual = 0.000110704708322001, Final residual = 8.64090396414885e-07, No Iterations 5
GAMG:  Solving for p, Initial residual = 3.50988992900186e-05, Final residual = 2.8934172827577e-07, No Iterations 5
time step continuity errors : sum local = 1.78373862970328e-06, global = 1.50301572710382e-07, cumulative = -2.54840358289668e-06
smoothSolver:  Solving for omega, Initial residual = 0.00629735699074842, Final residual = 0.000590349676493002, No Iterations 2
smoothSolver:  Solving for k, Initial residual = 0.0211496713024482, Final residual = 0.00133085077124469, No Iterations 2
ExecutionTime = 7.84 s  ClockTime = 8 s

Time = 32

smoothSolver:  Solving for Ux, Initial residual = 0.0122179039860779, Final residual = 0.000516679294464615, No Iterations 2
smoothSolver:  Solving for Uy, Initial residual = 0.00765235813020143, Final residual = 0.000379788907482365, No Iterations 2
smoothSolver:  Solving for Uz, Initial residual = 0.0241719356049873, Final residual = 0.0011185425233207, No Iterations 2
GAMG:  Solving for p, Initial residual = 0.132339423730264, Final residual = 0.00125542028055072, No Iterations 3
GAMG:  Solving for p, Initial residual = 0.0113274891826352, Final residual = 6.75643350093019e-05, No Iterations 5
GAMG:  Solving for p, Initial residual = 0.00179319424439272, Final residual = 1.49759497336505e-05, No Iterations 4
GAMG:  Solving for p, Initial residual = 0.000386755161820165, Final residual = 2.67906684678581e-06, No Iterations 5
GAMG:  Solving for p, Initial residual = 0.000110314640279031, Final residual = 9.95417259536989e-07, No Iterations 4
GAMG:  Solving for p, Initial residual = 3.48773269857515e-05, Final residual = 2.63172446569546e-07, No Iterations 5
time step continuity errors : sum local = 1.63391870865721e-06, global = 9.84085540564853e-08, cumulative = -2.44999502884019e-06
smoothSolver:  Solving for omega, Initial residual = 0.00630872949681799, Final residual = 0.000593964124435862, No Iterations 2
smoothSolver:  Solving for k, Initial residual = 0.0192232524616913, Final residual = 0.00124037666464539, No Iterations 2
ExecutionTime = 8.07 s  ClockTime = 8 s

Time = 33

smoothSolver:  Solving for Ux, Initial residual = 0.0122625895019028, Final residual = 0.000516421113208635, No Iterations 2
smoothSolver:  Solving for Uy, Initial residual = 0.00764360615213455, Final residual = 0.000378386799071073, No Iterations 2
smoothSolver:  Solving for Uz, Initial residual = 0.0239413194476283, Final residual = 0.00110744551371008, No Iterations 2
GAMG:  Solving for p, Initial residual = 0.131157143518531, Final residual = 0.00128871094595185, No Iterations 3
GAMG:  Solving for p, Initial residual = 0.0111697272887374, Final residual = 6.51070986874544e-05, No Iterations 5
GAMG:  Solving for p, Initial residual = 0.00172366663470936, Final residual = 1.26383596513249e-05, No Iterations 4
GAMG:  Solving for p, Initial residual = 0.000364606875482606, Final residual = 2.44737304477103e-06, No Iterations 5
GAMG:  Solving for p, Initial residual = 0.000103666283521508, Final residual = 9.38370786753438e-07, No Iterations 4
GAMG:  Solving for p, Initial residual = 3.26684881241113e-05, Final residual = 2.51871010987549e-07, No Iterations 5
time step continuity errors : sum local = 1.58942156297143e-06, global = 9.41477565232946e-08, cumulative = -2.3558472723169e-06
smoothSolver:  Solving for omega, Initial residual = 0.00632272613773641, Final residual = 0.000597210578849516, No Iterations 2
smoothSolver:  Solving for k, Initial residual = 0.0175689821890258, Final residual = 0.00116492509369763, No Iterations 2
ExecutionTime = 8.31 s  ClockTime = 8 s

Time = 34

smoothSolver:  Solving for Ux, Initial residual = 0.0122329428683754, Final residual = 0.000514349155183228, No Iterations 2
smoothSolver:  Solving for Uy, Initial residual = 0.00765017237471644, Final residual = 0.000376621018705311, No Iterations 2
smoothSolver:  Solving for Uz, Initial residual = 0.0237361311749389, Final residual = 0.00111108068631019, No Iterations 2
GAMG:  Solving for p, Initial residual = 0.129850228647738, Final residual = 0.000595289263255236, No Iterations 4
GAMG:  Solving for p, Initial residual = 0.0107813644760388, Final residual = 7.03307480113055e-05, No Iterations 4
GAMG:  Solving for p, Initial residual = 0.00152462445360126, Final residual = 1.20992360628856e-05, No Iterations 4
GAMG:  Solving for p, Initial residual = 0.000333065815409946, Final residual = 3.30822419454579e-06, No Iterations 4
GAMG:  Solving for p, Initial residual = 9.46693635683598e-05, Final residual = 6.94127677243481e-07, No Iterations 5
GAMG:  Solving for p, Initial residual = 2.91688507392076e-05, Final residual = 2.1758501844667e-07, No Iterations 5
time step continuity errors : sum local = 1.39572262196472e-06, global = 8.851896529215e-08, cumulative = -2.26732830702475e-06
smoothSolver:  Solving for omega, Initial residual = 0.00634885564146836, Final residual = 0.000597246470607688, No Iterations 2
smoothSolver:  Solving for k, Initial residual = 0.0161352752211876, Final residual = 0.0010988663057334, No Iterations 2
ExecutionTime = 8.54 s  ClockTime = 8 s

Time = 35

smoothSolver:  Solving for Ux, Initial residual = 0.0121736911708461, Final residual = 0.000506321854760357, No Iterations 2
smoothSolver:  Solving for Uy, Initial residual = 0.00768167529588192, Final residual = 0.000376625941448054, No Iterations 2
smoothSolver:  Solving for Uz, Initial residual = 0.0236388857326662, Final residual = 0.00111743850934862, No Iterations 2
GAMG:  Solving for p, Initial residual = 0.127747043739727, Final residual = 0.000575637284732043, No Iterations 4
GAMG:  Solving for p, Initial residual = 0.0103341515766032, Final residual = 6.57838696106496e-05, No Iterations 4
GAMG:  Solving for p, Initial residual = 0.00141885944775545, Final residual = 1.11456203354245e-05, No Iterations 4
GAMG:  Solving for p, Initial residual = 0.000311734310367499, Final residual = 3.08613958582304e-06, No Iterations 4
GAMG:  Solving for p, Initial residual = 8.65781224674034e-05, Final residual = 6.82966896864359e-07, No Iterations 5
GAMG:  Solving for p, Initial residual = 2.72303477582754e-05, Final residual = 2.0976290688924e-07, No Iterations 5
time step continuity errors : sum local = 1.36238224013382e-06, global = 8.94350953519805e-08, cumulative = -2.17789321167277e-06
smoothSolver:  Solving for omega, Initial residual = 0.00638174572353356, Final residual = 0.000597915198084944, No Iterations 2
smoothSolver:  Solving for k, Initial residual = 0.0150338568107598, Final residual = 0.00105548033781648, No Iterations 2
ExecutionTime = 8.79 s  ClockTime = 9 s

Time = 36

smoothSolver:  Solving for Ux, Initial residual = 0.0121576786320263, Final residual = 0.000501141732929091, No Iterations 2
smoothSolver:  Solving for Uy, Initial residual = 0.00772784454406498, Final residual = 0.000376324336094188, No Iterations 2
smoothSolver:  Solving for Uz, Initial residual = 0.0235705685614093, Final residual = 0.00112103675061509, No Iterations 2
GAMG:  Solving for p, Initial residual = 0.124155427820235, Final residual = 0.00121260654246453, No Iterations 3
GAMG:  Solving for p, Initial residual = 0.00993306515144261, Final residual = 9.87064348215544e-05, No Iterations 4
GAMG:  Solving for p, Initial residual = 0.00150278419481906, Final residual = 9.81846565023701e-06, No Iterations 5
GAMG:  Solving for p, Initial residual = 0.000317244214397585, Final residual = 3.13758509506795e-06, No Iterations 4
GAMG:  Solving for p, Initial residual = 8.51961443418566e-05, Final residual = 7.09714985128018e-07, No Iterations 5
GAMG:  Solving for p, Initial residual = 2.6530734530218e-05, Final residual = 2.25272615707536e-07, No Iterations 5
time step continuity errors : sum local = 1.46875314666784e-06, global = 1.04269915714039e-07, cumulative = -2.07362329595873e-06
smoothSolver:  Solving for omega, Initial residual = 0.00640590498023748, Final residual = 0.000600015530089069, No Iterations 2
smoothSolver:  Solving for k, Initial residual = 0.0141612920982369, Final residual = 0.00101846159593492, No Iterations 2
ExecutionTime = 9.02 s  ClockTime = 9 s

Time = 37

smoothSolver:  Solving for Ux, Initial residual = 0.0121282604967084, Final residual = 0.000497254469765324, No Iterations 2
smoothSolver:  Solving for Uy, Initial residual = 0.00776219340194375, Final residual = 0.000375525498331619, No Iterations 2
smoothSolver:  Solving for Uz, Initial residual = 0.0232066331057874, Final residual = 0.00111296848969827, No Iterations 2
GAMG:  Solving for p, Initial residual = 0.120852607353948, Final residual = 0.00115273937107622, No Iterations 3
GAMG:  Solving for p, Initial residual = 0.00954830032041918, Final residual = 9.14902834039258e-05, No Iterations 4
GAMG:  Solving for p, Initial residual = 0.00148765499174466, Final residual = 9.32988001749627e-06, No Iterations 5
GAMG:  Solving for p, Initial residual = 0.000314832371951921, Final residual = 1.98636923315362e-06, No Iterations 5
GAMG:  Solving for p, Initial residual = 8.44195567959091e-05, Final residual = 8.30000897254618e-07, No Iterations 4
GAMG:  Solving for p, Initial residual = 2.60423024371505e-05, Final residual = 2.26718826236421e-07, No Iterations 5
time step continuity errors : sum local = 1.47809161545585e-06, global = 1.08534832910393e-07, cumulative = -1.96508846304833e-06
smoothSolver:  Solving for omega, Initial residual = 0.00649079492472549, Final residual = 0.000607876555079821, No Iterations 2
smoothSolver:  Solving for k, Initial residual = 0.013581581574344, Final residual = 0.00100106342582445, No Iterations 2
ExecutionTime = 9.26 s  ClockTime = 9 s

Time = 38

smoothSolver:  Solving for Ux, Initial residual = 0.0121102608815428, Final residual = 0.000496244941335557, No Iterations 2
smoothSolver:  Solving for Uy, Initial residual = 0.00776278460282736, Final residual = 0.000373392198196854, No Iterations 2
smoothSolver:  Solving for Uz, Initial residual = 0.0226611484373994, Final residual = 0.0010987247027073, No Iterations 2
GAMG:  Solving for p, Initial residual = 0.118162019291588, Final residual = 0.00112479110698356, No Iterations 3
GAMG:  Solving for p, Initial residual = 0.0094119506255115, Final residual = 8.72869287855985e-05, No Iterations 4
GAMG:  Solving for p, Initial residual = 0.00147958068121809, Final residual = 8.88913807082558e-06, No Iterations 5
GAMG:  Solving for p, Initial residual = 0.000303317769363066, Final residual = 3.01543836686174e-06, No Iterations 4
GAMG:  Solving for p, Initial residual = 8.14746729092845e-05, Final residual = 6.06262210185056e-07, No Iterations 5
GAMG:  Solving for p, Initial residual = 2.49824742419293e-05, Final residual = 2.01690079615069e-07, No Iterations 5
time step continuity errors : sum local = 1.31839520518032e-06, global = 1.01297227117682e-07, cumulative = -1.86379123593065e-06
smoothSolver:  Solving for omega, Initial residual = 0.0065253196141448, Final residual = 0.000621109625482509, No Iterations 2
smoothSolver:  Solving for k, Initial residual = 0.0132504401913678, Final residual = 0.00100199087068121, No Iterations 2
ExecutionTime = 9.5 s  ClockTime = 9 s

Time = 39

smoothSolver:  Solving for Ux, Initial residual = 0.0121257718000586, Final residual = 0.000495886948014555, No Iterations 2
smoothSolver:  Solving for Uy, Initial residual = 0.00778017741611908, Final residual = 0.000370540000956423, No Iterations 2
smoothSolver:  Solving for Uz, Initial residual = 0.0222392145216263, Final residual = 0.00108874963198412, No Iterations 2
GAMG:  Solving for p, Initial residual = 0.117780547536656, Final residual = 0.00108818576897, No Iterations 3
GAMG:  Solving for p, Initial residual = 0.00912310860803802, Final residual = 8.58305035505642e-05, No Iterations 4
GAMG:  Solving for p, Initial residual = 0.00140533836364542, Final residual = 1.24195541939105e-05, No Iterations 4
GAMG:  Solving for p, Initial residual = 0.000289951997036699, Final residual = 2.20345805491609e-06, No Iterations 5
GAMG:  Solving for p, Initial residual = 7.83322173121273e-05, Final residual = 5.5370511369233e-07, No Iterations 5
GAMG:  Solving for p, Initial residual = 2.40310587322277e-05, Final residual = 1.88263949063357e-07, No Iterations 5
time step continuity errors : sum local = 1.24374585816605e-06, global = 9.22255782855549e-08, cumulative = -1.7715656576451e-06
smoothSolver:  Solving for omega, Initial residual = 0.00654565963036914, Final residual = 0.000632763426484992, No Iterations 2
smoothSolver:  Solving for k, Initial residual = 0.0130894588370643, Final residual = 0.0010227114427206, No Iterations 2
ExecutionTime = 9.74 s  ClockTime = 10 s

Time = 40

smoothSolver:  Solving for Ux, Initial residual = 0.0121564300197108, Final residual = 0.000495655508494761, No Iterations 2
smoothSolver:  Solving for Uy, Initial residual = 0.00784616515065897, Final residual = 0.000368981382060831, No Iterations 2
smoothSolver:  Solving for Uz, Initial residual = 0.0220200319393622, Final residual = 0.00108241532743583, No Iterations 2
GAMG:  Solving for p, Initial residual = 0.118336475875342, Final residual = 0.00103569314503943, No Iterations 3
GAMG:  Solving for p, Initial residual = 0.00888015556323575, Final residual = 8.29496638941318e-05, No Iterations 4
GAMG:  Solving for p, Initial residual = 0.00134326224783868, Final residual = 1.17964474495058e-05, No Iterations 4
GAMG:  Solving for p, Initial residual = 0.000279261143232747, Final residual = 2.15240556886757e-06, No Iterations 5
GAMG:  Solving for p, Initial residual = 7.54242660262081e-05, Final residual = 5.3593714881804e-07, No Iterations 5
GAMG:  Solving for p, Initial residual = 2.31762990696408e-05, Final residual = 1.86024332684753e-07, No Iterations 5
time step continuity errors : sum local = 1.24896225102e-06, global = 9.04322225257663e-08, cumulative = -1.68113343511933e-06
smoothSolver:  Solving for omega, Initial residual = 0.00660904379168651, Final residual = 0.000641066736375747, No Iterations 2
smoothSolver:  Solving for k, Initial residual = 0.0131444320656282, Final residual = 0.00105026309782169, No Iterations 2
ExecutionTime = 9.97 s  ClockTime = 10 s

Time = 41

smoothSolver:  Solving for Ux, Initial residual = 0.0121920538575232, Final residual = 0.000493094248147953, No Iterations 2
smoothSolver:  Solving for Uy, Initial residual = 0.0079087923765768, Final residual = 0.00036792267290196, No Iterations 2
smoothSolver:  Solving for Uz, Initial residual = 0.0218496961331204, Final residual = 0.00107148837420672, No Iterations 2
GAMG:  Solving for p, Initial residual = 0.117813107584575, Final residual = 0.000981080805221732, No Iterations 3
GAMG:  Solving for p, Initial residual = 0.00861741770692044, Final residual = 7.81646729925757e-05, No Iterations 4
GAMG:  Solving for p, Initial residual = 0.00130027047170828, Final residual = 1.12592965132106e-05, No Iterations 4
GAMG:  Solving for p, Initial residual = 0.000269530967186325, Final residual = 2.05725198998966e-06, No Iterations 5
GAMG:  Solving for p, Initial residual = 7.35380277999104e-05, Final residual = 5.38349514904026e-07, No Iterations 5
GAMG:  Solving for p, Initial residual = 2.24774400573346e-05, Final residual = 1.89100797189238e-07, No Iterations 5
time step continuity errors : sum local = 1.29139424748943e-06, global = 9.42620420560227e-08, cumulative = -1.58687139306331e-06
smoothSolver:  Solving for omega, Initial residual = 0.00667755072313412, Final residual = 0.00064659536692686, No Iterations 2
smoothSolver:  Solving for k, Initial residual = 0.0133437934178752, Final residual = 0.00107824703196033, No Iterations 2
ExecutionTime = 10.21 s  ClockTime = 10 s

Time = 42

smoothSolver:  Solving for Ux, Initial residual = 0.0122253473654877, Final residual = 0.000491115616056271, No Iterations 2
smoothSolver:  Solving for Uy, Initial residual = 0.00792280160152732, Final residual = 0.000365911734023394, No Iterations 2
smoothSolver:  Solving for Uz, Initial residual = 0.0215895894209197, Final residual = 0.00104774130552438, No Iterations 2
GAMG:  Solving for p, Initial residual = 0.116102236770504, Final residual = 0.000960606960556576, No Iterations 3
GAMG:  Solving for p, Initial residual = 0.00842059380104205, Final residual = 7.73449643141465e-05, No Iterations 4
GAMG:  Solving for p, Initial residual = 0.00125580908332495, Final residual = 1.01818480318669e-05, No Iterations 4
GAMG:  Solving for p, Initial residual = 0.00026217261694806, Final residual = 2.08117200528423e-06, No Iterations 5
GAMG:  Solving for p, Initial residual = 7.15498595716594e-05, Final residual = 5.64569904624476e-07, No Iterations 5
GAMG:  Solving for p, Initial residual = 2.19672857711876e-05, Final residual = 2.03281416180892e-07, No Iterations 5
time step continuity errors : sum local = 1.40409068068539e-06, global = 1.03720572279067e-07, cumulative = -1.48315082078424e-06
smoothSolver:  Solving for omega, Initial residual = 0.00671500218219489, Final residual = 0.000654816496076497, No Iterations 2
smoothSolver:  Solving for k, Initial residual = 0.013662101070387, Final residual = 0.00111346233103248, No Iterations 2
ExecutionTime = 10.46 s  ClockTime = 10 s

Time = 43

smoothSolver:  Solving for Ux, Initial residual = 0.0122581484603626, Final residual = 0.000485643713389671, No Iterations 2
smoothSolver:  Solving for Uy, Initial residual = 0.00790892635260081, Final residual = 0.000363304471743367, No Iterations 2
smoothSolver:  Solving for Uz, Initial residual = 0.0211745867915573, Final residual = 0.00101027103743019, No Iterations 2
GAMG:  Solving for p, Initial residual = 0.11420856525995, Final residual = 0.00097500414427872, No Iterations 3
GAMG:  Solving for p, Initial residual = 0.00827816432964515, Final residual = 7.48053267318223e-05, No Iterations 4
GAMG:  Solving for p, Initial residual = 0.00126039800383551, Final residual = 1.03290208452544e-05, No Iterations 4
GAMG:  Solving for p, Initial residual = 0.000265731620278322, Final residual = 2.04233049247589e-06, No Iterations 5
GAMG:  Solving for p, Initial residual = 7.2280383304725e-05, Final residual = 5.73776466175843e-07, No Iterations 5
GAMG:  Solving for p, Initial residual = 2.20964486265702e-05, Final residual = 2.10591884401665e-07, No Iterations 5
time step continuity errors : sum local = 1.46563792087513e-06, global = 1.07122850453043e-07, cumulative = -1.3760279703312e-06
smoothSolver:  Solving for omega, Initial residual = 0.006773172523888, Final residual = 0.000672490777821833, No Iterations 2
smoothSolver:  Solving for k, Initial residual = 0.0141420889131498, Final residual = 0.00117897534087666, No Iterations 2
ExecutionTime = 10.69 s  ClockTime = 11 s

Time = 44

smoothSolver:  Solving for Ux, Initial residual = 0.0122656856284004, Final residual = 0.000481264313875907, No Iterations 2
smoothSolver:  Solving for Uy, Initial residual = 0.00787444801020899, Final residual = 0.000359973413291671, No Iterations 2
smoothSolver:  Solving for Uz, Initial residual = 0.0206895432128209, Final residual = 0.000976369589009813, No Iterations 2
GAMG:  Solving for p, Initial residual = 0.11217289223663, Final residual = 0.000981095293748096, No Iterations 3
GAMG:  Solving for p, Initial residual = 0.00797518543949492, Final residual = 7.03242084154422e-05, No Iterations 4
GAMG:  Solving for p, Initial residual = 0.00123412680672949, Final residual = 1.00551062548934e-05, No Iterations 4
GAMG:  Solving for p, Initial residual = 0.000258574712095555, Final residual = 2.07071118083497e-06, No Iterations 5
GAMG:  Solving for p, Initial residual = 7.07059285598336e-05, Final residual = 5.71775108964061e-07, No Iterations 5
GAMG:  Solving for p, Initial residual = 2.17552740398254e-05, Final residual = 2.11712080402654e-07, No Iterations 5
time step continuity errors : sum local = 1.48159818604565e-06, global = 1.05176874678049e-07, cumulative = -1.27085109565315e-06
smoothSolver:  Solving for omega, Initial residual = 0.00682933316036459, Final residual = 0.0002783375294256, No Iterations 3
smoothSolver:  Solving for k, Initial residual = 0.0147328224579515, Final residual = 0.0012685890295254, No Iterations 2
ExecutionTime = 10.93 s  ClockTime = 11 s

Time = 45

smoothSolver:  Solving for Ux, Initial residual = 0.0122504965919759, Final residual = 0.000477320169238516, No Iterations 2
smoothSolver:  Solving for Uy, Initial residual = 0.00781813270879907, Final residual = 0.000355899780790317, No Iterations 2
smoothSolver:  Solving for Uz, Initial residual = 0.0202786820481217, Final residual = 0.000946298699211878, No Iterations 2
GAMG:  Solving for p, Initial residual = 0.110025119707398, Final residual = 0.000961028674198409, No Iterations 3
GAMG:  Solving for p, Initial residual = 0.00775927064950776, Final residual = 6.76426227095539e-05, No Iterations 4
GAMG:  Solving for p, Initial residual = 0.00119461097649331, Final residual = 1.04507830576666e-05, No Iterations 4
GAMG:  Solving for p, Initial residual = 0.000253085023909192, Final residual = 2.06329701697453e-06, No Iterations 5
GAMG:  Solving for p, Initial residual = 6.98287645691167e-05, Final residual = 5.75828369044503e-07, No Iterations 5
GAMG:  Solving for p, Initial residual = 2.14224642961483e-05, Final residual = 2.08542200052523e-07, No Iterations 5
time step continuity errors : sum local = 1.46556026086781e-06, global = 1.017089819696e-07, cumulative = -1.16914211368355e-06
smoothSolver:  Solving for omega, Initial residual = 0.00683516887580696, Final residual = 0.000280357906322652, No Iterations 3
smoothSolver:  Solving for k, Initial residual = 0.0153625711226739, Final residual = 0.0013710669288737, No Iterations 2
ExecutionTime = 11.18 s  ClockTime = 11 s

Time = 46

smoothSolver:  Solving for Ux, Initial residual = 0.0122308720485092, Final residual = 0.000473010869627859, No Iterations 2
smoothSolver:  Solving for Uy, Initial residual = 0.00775106785089703, Final residual = 0.000350339865985461, No Iterations 2
smoothSolver:  Solving for Uz, Initial residual = 0.0199798430022084, Final residual = 0.000916272254786428, No Iterations 2
GAMG:  Solving for p, Initial residual = 0.108206359742192, Final residual = 0.000918324312785164, No Iterations 3
GAMG:  Solving for p, Initial residual = 0.0077130894769643, Final residual = 6.72154594126711e-05, No Iterations 4
GAMG:  Solving for p, Initial residual = 0.00118626542976682, Final residual = 1.05073996549758e-05, No Iterations 4
GAMG:  Solving for p, Initial residual = 0.000253928627385232, Final residual = 2.07142158802745e-06, No Iterations 5
GAMG:  Solving for p, Initial residual = 6.94834313977115e-05, Final residual = 5.50103886613641e-07, No Iterations 5
GAMG:  Solving for p, Initial residual = 2.13722177072722e-05, Final residual = 1.98747094488325e-07, No Iterations 5
time step continuity errors : sum local = 1.40680683246458e-06, global = 9.60111332200382e-08, cumulative = -1.07313098046351e-06
smoothSolver:  Solving for omega, Initial residual = 0.00685480546063192, Final residual = 0.000281373875695607, No Iterations 3
smoothSolver:  Solving for k, Initial residual = 0.0160564931365784, Final residual = 0.00147039184939726, No Iterations 2
ExecutionTime = 11.42 s  ClockTime = 11 s

Time = 47

smoothSolver:  Solving for Ux, Initial residual = 0.0121920143310299, Final residual = 0.000471064952860529, No Iterations 2
smoothSolver:  Solving for Uy, Initial residual = 0.00768483145796169, Final residual = 0.000344384200550714, No Iterations 2
smoothSolver:  Solving for Uz, Initial residual = 0.019621451761427, Final residual = 0.000883587003591899, No Iterations 2
GAMG:  Solving for p, Initial residual = 0.106088821315295, Final residual = 0.000881076514429651, No Iterations 3
GAMG:  Solving for p, Initial residual = 0.00754484705779821, Final residual = 6.57165593247562e-05, No Iterations 4
GAMG:  Solving for p, Initial residual = 0.00115147044909607, Final residual = 1.01484986997422e-05, No Iterations 4
GAMG:  Solving for p, Initial residual = 0.000249871393853346, Final residual = 1.98999972374903e-06, No Iterations 5
GAMG:  Solving for p, Initial residual = 6.89864893466036e-05, Final residual = 5.20597820155046e-07, No Iterations 5
GAMG:  Solving for p, Initial residual = 2.13540712656731e-05, Final residual = 1.87518273430111e-07, No Iterations 5
time step continuity errors : sum local = 1.33628418562814e-06, global = 8.88833174521792e-08, cumulative = -9.84247663011332e-07
smoothSolver:  Solving for omega, Initial residual = 0.00688172803582156, Final residual = 0.000284399315467722, No Iterations 3
smoothSolver:  Solving for k, Initial residual = 0.0168840074414068, Final residual = 0.00159888769491972, No Iterations 2
ExecutionTime = 11.66 s  ClockTime = 12 s

Time = 48

smoothSolver:  Solving for Ux, Initial residual = 0.0121080999035566, Final residual = 0.000470042584294252, No Iterations 2
smoothSolver:  Solving for Uy, Initial residual = 0.00759569127960192, Final residual = 0.000338978611234469, No Iterations 2
smoothSolver:  Solving for Uz, Initial residual = 0.0191283601778154, Final residual = 0.000851599887277137, No Iterations 2
GAMG:  Solving for p, Initial residual = 0.104012880826164, Final residual = 0.000856426752232017, No Iterations 3
GAMG:  Solving for p, Initial residual = 0.00731937300652405, Final residual = 6.36544662252376e-05, No Iterations 4
GAMG:  Solving for p, Initial residual = 0.00112968458976066, Final residual = 9.68594995152389e-06, No Iterations 4
GAMG:  Solving for p, Initial residual = 0.000245098992064394, Final residual = 1.89105550072202e-06, No Iterations 5
GAMG:  Solving for p, Initial residual = 6.73871810238256e-05, Final residual = 4.82157744366023e-07, No Iterations 5
GAMG:  Solving for p, Initial residual = 2.07338425734272e-05, Final residual = 1.69685923726154e-07, No Iterations 5
time step continuity errors : sum local = 1.21590353350267e-06, global = 8.16335217046967e-08, cumulative = -9.02614141306636e-07
smoothSolver:  Solving for omega, Initial residual = 0.0069308910122299, Final residual = 0.000289978447844191, No Iterations 3
smoothSolver:  Solving for k, Initial residual = 0.0179268628133737, Final residual = 0.00175712472800312, No Iterations 2
ExecutionTime = 11.89 s  ClockTime = 12 s

Time = 49

smoothSolver:  Solving for Ux, Initial residual = 0.0120207906804596, Final residual = 0.000470749027399982, No Iterations 2
smoothSolver:  Solving for Uy, Initial residual = 0.0075148918847601, Final residual = 0.000333492791921674, No Iterations 2
smoothSolver:  Solving for Uz, Initial residual = 0.018599411229694, Final residual = 0.000821100960918233, No Iterations 2
GAMG:  Solving for p, Initial residual = 0.100954637011487, Final residual = 0.000830248623203982, No Iterations 3
GAMG:  Solving for p, Initial residual = 0.0071583405779484, Final residual = 6.15343593518774e-05, No Iterations 4
GAMG:  Solving for p, Initial residual = 0.00109139165866045, Final residual = 9.01848578536877e-06, No Iterations 4
GAMG:  Solving for p, Initial residual = 0.000235886719272708, Final residual = 1.76921303138772e-06, No Iterations 5
GAMG:  Solving for p, Initial residual = 6.47577948703917e-05, Final residual = 4.54873667951111e-07, No Iterations 5
GAMG:  Solving for p, Initial residual = 2.00387544254232e-05, Final residual = 1.57211299934219e-07, No Iterations 5
time step continuity errors : sum local = 1.13379212916738e-06, global = 7.55681816831501e-08, cumulative = -8.27045959623486e-07
smoothSolver:  Solving for omega, Initial residual = 0.00704888599726983, Final residual = 0.000299497544849592, No Iterations 3
smoothSolver:  Solving for k, Initial residual = 0.0192130086352122, Final residual = 0.000771311590842925, No Iterations 3
ExecutionTime = 12.13 s  ClockTime = 12 s

Time = 50

smoothSolver:  Solving for Ux, Initial residual = 0.0119415199759698, Final residual = 0.000471761545105377, No Iterations 2
smoothSolver:  Solving for Uy, Initial residual = 0.0074562731398914, Final residual = 0.000329102631359216, No Iterations 2
smoothSolver:  Solving for Uz, Initial residual = 0.0181001819277459, Final residual = 0.000796261664609414, No Iterations 2
GAMG:  Solving for p, Initial residual = 0.0976686318358465, Final residual = 0.000814517359849222, No Iterations 3
GAMG:  Solving for p, Initial residual = 0.00700394133186783, Final residual = 6.01326368027387e-05, No Iterations 4
GAMG:  Solving for p, Initial residual = 0.0010695033646951, Final residual = 8.37062411790907e-06, No Iterations 4
GAMG:  Solving for p, Initial residual = 0.000228086519906754, Final residual = 1.79244847817093e-06, No Iterations 5
GAMG:  Solving for p, Initial residual = 6.29578995788204e-05, Final residual = 4.64762379061156e-07, No Iterations 5
GAMG:  Solving for p, Initial residual = 1.94699529199969e-05, Final residual = 1.63289909500089e-07, No Iterations 5
time step continuity errors : sum local = 1.18811125546685e-06, global = 8.65546491677948e-08, cumulative = -7.40491310455691e-07
smoothSolver:  Solving for omega, Initial residual = 0.00722242838636592, Final residual = 0.000314448553666306, No Iterations 3
smoothSolver:  Solving for k, Initial residual = 0.0208061438173557, Final residual = 0.000881001318251743, No Iterations 3
ExecutionTime = 12.38 s  ClockTime = 12 s

Time = 51

smoothSolver:  Solving for Ux, Initial residual = 0.0118560197639237, Final residual = 0.000471370050204289, No Iterations 2
smoothSolver:  Solving for Uy, Initial residual = 0.00738224729122264, Final residual = 0.00032500402103703, No Iterations 2
smoothSolver:  Solving for Uz, Initial residual = 0.017643340023949, Final residual = 0.000776312716074659, No Iterations 2
GAMG:  Solving for p, Initial residual = 0.0944698337978864, Final residual = 0.000810639412816822, No Iterations 3
GAMG:  Solving for p, Initial residual = 0.0067150173534971, Final residual = 5.87911458579825e-05, No Iterations 4
GAMG:  Solving for p, Initial residual = 0.00102394669077732, Final residual = 8.15675747635672e-06, No Iterations 4
GAMG:  Solving for p, Initial residual = 0.000218209397073893, Final residual = 1.66732277166095e-06, No Iterations 5
GAMG:  Solving for p, Initial residual = 6.08118503106007e-05, Final residual = 6.07596912778582e-07, No Iterations 4
GAMG:  Solving for p, Initial residual = 1.8775878047351e-05, Final residual = 1.70399581859077e-07, No Iterations 5
time step continuity errors : sum local = 1.25055937093505e-06, global = 9.31144558231478e-08, cumulative = -6.47376854632543e-07
smoothSolver:  Solving for omega, Initial residual = 0.00743064906944631, Final residual = 0.000332564009715884, No Iterations 3
smoothSolver:  Solving for k, Initial residual = 0.0227184822610954, Final residual = 0.00101333069887541, No Iterations 3
ExecutionTime = 12.61 s  ClockTime = 13 s

Time = 52

smoothSolver:  Solving for Ux, Initial residual = 0.0117743452757716, Final residual = 0.000470041622723388, No Iterations 2
smoothSolver:  Solving for Uy, Initial residual = 0.007299983649971, Final residual = 0.000320212086544358, No Iterations 2
smoothSolver:  Solving for Uz, Initial residual = 0.0172017136186046, Final residual = 0.000758485799139221, No Iterations 2
GAMG:  Solving for p, Initial residual = 0.0915891342023386, Final residual = 0.000819133029239162, No Iterations 3
[...]
ExecutionTime = 482.88 s  ClockTime = 483 s

Time = 1988

smoothSolver:  Solving for Ux, Initial residual = 0.000214096677408283, Final residual = 1.02810388607571e-05, No Iterations 2
smoothSolver:  Solving for Uy, Initial residual = 0.000184608495363523, Final residual = 8.74288435616455e-06, No Iterations 2
smoothSolver:  Solving for Uz, Initial residual = 0.00022692306490316, Final residual = 1.16898204221831e-05, No Iterations 2
GAMG:  Solving for p, Initial residual = 0.00225545141000787, Final residual = 1.90018223306643e-05, No Iterations 3
GAMG:  Solving for p, Initial residual = 0.000194403274391449, Final residual = 1.88870070764245e-06, No Iterations 4
GAMG:  Solving for p, Initial residual = 3.18509225348824e-05, Final residual = 2.39279459188309e-07, No Iterations 5
GAMG:  Solving for p, Initial residual = 8.30751417506842e-06, Final residual = 7.9320840021091e-08, No Iterations 4
GAMG:  Solving for p, Initial residual = 2.20994559062218e-06, Final residual = 1.68090329712816e-08, No Iterations 5
GAMG:  Solving for p, Initial residual = 7.15848303206143e-07, Final residual = 7.70678876004498e-09, No Iterations 4
time step continuity errors : sum local = 5.33207845224567e-08, global = 5.94408958343092e-09, cumulative = 6.39325427856564e-07
smoothSolver:  Solving for omega, Initial residual = 0.000122479863651092, Final residual = 1.16938212306846e-05, No Iterations 3
smoothSolver:  Solving for k, Initial residual = 0.000251932344291087, Final residual = 2.24970671863502e-05, No Iterations 3
ExecutionTime = 483.12 s  ClockTime = 483 s

Time = 1989

smoothSolver:  Solving for Ux, Initial residual = 0.000215079148277683, Final residual = 1.03506056357123e-05, No Iterations 2
smoothSolver:  Solving for Uy, Initial residual = 0.00018319430801565, Final residual = 8.65991470353574e-06, No Iterations 2
smoothSolver:  Solving for Uz, Initial residual = 0.000226137138687765, Final residual = 1.16006515357111e-05, No Iterations 2
GAMG:  Solving for p, Initial residual = 0.0022552620582875, Final residual = 1.89221935968062e-05, No Iterations 3
GAMG:  Solving for p, Initial residual = 0.00019426955387335, Final residual = 1.83642929380246e-06, No Iterations 4
GAMG:  Solving for p, Initial residual = 3.17434548045321e-05, Final residual = 2.28589257718237e-07, No Iterations 5
GAMG:  Solving for p, Initial residual = 8.23459482147297e-06, Final residual = 7.73787798115678e-08, No Iterations 4
GAMG:  Solving for p, Initial residual = 2.17745374994187e-06, Final residual = 1.62119855922363e-08, No Iterations 5
GAMG:  Solving for p, Initial residual = 7.09834603129489e-07, Final residual = 7.56330094539408e-09, No Iterations 4
time step continuity errors : sum local = 5.23297358920191e-08, global = 5.69152661782389e-09, cumulative = 6.45016954474388e-07
smoothSolver:  Solving for omega, Initial residual = 0.000122434796469101, Final residual = 1.17780241278444e-05, No Iterations 3
smoothSolver:  Solving for k, Initial residual = 0.000251870348719739, Final residual = 2.25195618416191e-05, No Iterations 3
ExecutionTime = 483.35 s  ClockTime = 483 s

Time = 1990

smoothSolver:  Solving for Ux, Initial residual = 0.000216010531088775, Final residual = 1.04014432793463e-05, No Iterations 2
smoothSolver:  Solving for Uy, Initial residual = 0.000181736674112578, Final residual = 8.57468689474228e-06, No Iterations 2
smoothSolver:  Solving for Uz, Initial residual = 0.000225375565246748, Final residual = 1.15479420506845e-05, No Iterations 2
GAMG:  Solving for p, Initial residual = 0.00226400292982846, Final residual = 1.90890286947425e-05, No Iterations 3
GAMG:  Solving for p, Initial residual = 0.000191500644623281, Final residual = 1.81438465961269e-06, No Iterations 4
GAMG:  Solving for p, Initial residual = 3.16166745394426e-05, Final residual = 2.20455541097633e-07, No Iterations 5
GAMG:  Solving for p, Initial residual = 8.15486500109451e-06, Final residual = 7.48043468351701e-08, No Iterations 4
GAMG:  Solving for p, Initial residual = 2.14457111581936e-06, Final residual = 1.5254785091687e-08, No Iterations 5
GAMG:  Solving for p, Initial residual = 6.99104026435352e-07, Final residual = 7.21290931136252e-09, No Iterations 4
time step continuity errors : sum local = 4.99066486450347e-08, global = 5.28356305232773e-09, cumulative = 6.50300517526716e-07
smoothSolver:  Solving for omega, Initial residual = 0.000122456046455524, Final residual = 1.18234068108434e-05, No Iterations 3
smoothSolver:  Solving for k, Initial residual = 0.000251584583892323, Final residual = 2.25318040915981e-05, No Iterations 3
ExecutionTime = 483.59 s  ClockTime = 484 s

Time = 1991

smoothSolver:  Solving for Ux, Initial residual = 0.000216763411400645, Final residual = 1.04403047453315e-05, No Iterations 2
smoothSolver:  Solving for Uy, Initial residual = 0.000180271489340505, Final residual = 8.4848946886435e-06, No Iterations 2
smoothSolver:  Solving for Uz, Initial residual = 0.000224511033410691, Final residual = 1.1528732398889e-05, No Iterations 2
GAMG:  Solving for p, Initial residual = 0.00228617507259645, Final residual = 1.93060120234295e-05, No Iterations 3
GAMG:  Solving for p, Initial residual = 0.000190026085690066, Final residual = 1.78281171369651e-06, No Iterations 4
GAMG:  Solving for p, Initial residual = 3.16575124693049e-05, Final residual = 2.14703428486001e-07, No Iterations 5
GAMG:  Solving for p, Initial residual = 8.09796875979409e-06, Final residual = 7.15662825301423e-08, No Iterations 4
GAMG:  Solving for p, Initial residual = 2.12391189815067e-06, Final residual = 1.4891461498021e-08, No Iterations 5
GAMG:  Solving for p, Initial residual = 6.90321143438908e-07, Final residual = 6.80218121047962e-09, No Iterations 4
time step continuity errors : sum local = 4.7065689798374e-08, global = 4.86958667778467e-09, cumulative = 6.55170104204501e-07
smoothSolver:  Solving for omega, Initial residual = 0.000122199088151898, Final residual = 1.18083631519485e-05, No Iterations 3
smoothSolver:  Solving for k, Initial residual = 0.000250824739249121, Final residual = 2.24836822636605e-05, No Iterations 3
ExecutionTime = 483.84 s  ClockTime = 484 s

Time = 1992

smoothSolver:  Solving for Ux, Initial residual = 0.000217202900674108, Final residual = 1.0442594084884e-05, No Iterations 2
smoothSolver:  Solving for Uy, Initial residual = 0.000178779804982484, Final residual = 8.39067354819958e-06, No Iterations 2
smoothSolver:  Solving for Uz, Initial residual = 0.00022371024652506, Final residual = 1.15166140438346e-05, No Iterations 2
GAMG:  Solving for p, Initial residual = 0.00230888711994042, Final residual = 1.934122169171e-05, No Iterations 3
GAMG:  Solving for p, Initial residual = 0.00018976644094967, Final residual = 1.69608484244327e-06, No Iterations 4
GAMG:  Solving for p, Initial residual = 3.16090163059828e-05, Final residual = 2.06273343155915e-07, No Iterations 5
GAMG:  Solving for p, Initial residual = 7.96504393886694e-06, Final residual = 6.86821846322081e-08, No Iterations 4
GAMG:  Solving for p, Initial residual = 2.09782003424785e-06, Final residual = 2.06513387587512e-08, No Iterations 4
GAMG:  Solving for p, Initial residual = 6.76451053367656e-07, Final residual = 7.99291669822298e-09, No Iterations 4
time step continuity errors : sum local = 5.53057376079217e-08, global = 5.52576301327706e-09, cumulative = 6.60695867217778e-07
smoothSolver:  Solving for omega, Initial residual = 0.00012177607622683, Final residual = 1.17593651962861e-05, No Iterations 3
smoothSolver:  Solving for k, Initial residual = 0.000249380426712929, Final residual = 2.23584637251428e-05, No Iterations 3
ExecutionTime = 484.07 s  ClockTime = 484 s

Time = 1993

smoothSolver:  Solving for Ux, Initial residual = 0.000217548499622363, Final residual = 1.04071381409996e-05, No Iterations 2
smoothSolver:  Solving for Uy, Initial residual = 0.000177654196565679, Final residual = 8.30754173722825e-06, No Iterations 2
smoothSolver:  Solving for Uz, Initial residual = 0.000222828463923046, Final residual = 1.14830545804771e-05, No Iterations 2
GAMG:  Solving for p, Initial residual = 0.00232140782694461, Final residual = 1.86955661667954e-05, No Iterations 3
GAMG:  Solving for p, Initial residual = 0.000188994548055082, Final residual = 1.50413512953089e-06, No Iterations 4
GAMG:  Solving for p, Initial residual = 3.12214053624723e-05, Final residual = 1.95815890684413e-07, No Iterations 5
GAMG:  Solving for p, Initial residual = 7.77666364290241e-06, Final residual = 6.50570094640551e-08, No Iterations 4
GAMG:  Solving for p, Initial residual = 2.05731504661883e-06, Final residual = 1.98883304964285e-08, No Iterations 4
GAMG:  Solving for p, Initial residual = 6.62324659820462e-07, Final residual = 7.56380134224086e-09, No Iterations 4
time step continuity errors : sum local = 5.23360715709831e-08, global = 5.27805295439627e-09, cumulative = 6.65973920172174e-07
smoothSolver:  Solving for omega, Initial residual = 0.000121342299721879, Final residual = 1.16929221408811e-05, No Iterations 3
smoothSolver:  Solving for k, Initial residual = 0.000247809640620257, Final residual = 2.22055499801355e-05, No Iterations 3
ExecutionTime = 484.31 s  ClockTime = 484 s

Time = 1994

smoothSolver:  Solving for Ux, Initial residual = 0.000217725455233164, Final residual = 1.0353145368162e-05, No Iterations 2
smoothSolver:  Solving for Uy, Initial residual = 0.00017678602886302, Final residual = 8.23016884437765e-06, No Iterations 2
smoothSolver:  Solving for Uz, Initial residual = 0.000221525410470616, Final residual = 1.13950897183093e-05, No Iterations 2
GAMG:  Solving for p, Initial residual = 0.00233707673327954, Final residual = 1.74796676267724e-05, No Iterations 3
GAMG:  Solving for p, Initial residual = 0.000187310321873999, Final residual = 1.27576138321235e-06, No Iterations 4
GAMG:  Solving for p, Initial residual = 3.03975686528853e-05, Final residual = 2.80631172738298e-07, No Iterations 4
GAMG:  Solving for p, Initial residual = 7.53405177407685e-06, Final residual = 7.41301161526213e-08, No Iterations 4
GAMG:  Solving for p, Initial residual = 2.03552045664622e-06, Final residual = 1.54309101001736e-08, No Iterations 5
GAMG:  Solving for p, Initial residual = 6.49787029617585e-07, Final residual = 6.80983786143331e-09, No Iterations 4
time step continuity errors : sum local = 4.7118230844064e-08, global = 4.85552811122683e-09, cumulative = 6.70829448283401e-07
smoothSolver:  Solving for omega, Initial residual = 0.000120593211197008, Final residual = 1.16177108674083e-05, No Iterations 3
smoothSolver:  Solving for k, Initial residual = 0.000246052696350495, Final residual = 2.19605601141433e-05, No Iterations 3
ExecutionTime = 484.54 s  ClockTime = 485 s

Time = 1995

smoothSolver:  Solving for Ux, Initial residual = 0.000217523999713771, Final residual = 1.02642013541193e-05, No Iterations 2
smoothSolver:  Solving for Uy, Initial residual = 0.000175980138780743, Final residual = 8.15605803619999e-06, No Iterations 2
smoothSolver:  Solving for Uz, Initial residual = 0.000219637024765193, Final residual = 1.12430263310745e-05, No Iterations 2
GAMG:  Solving for p, Initial residual = 0.00233444251798729, Final residual = 1.6808853877395e-05, No Iterations 3
GAMG:  Solving for p, Initial residual = 0.000185970931854009, Final residual = 1.14322772406919e-06, No Iterations 4
GAMG:  Solving for p, Initial residual = 3.00415845330665e-05, Final residual = 2.47373447560098e-07, No Iterations 4
GAMG:  Solving for p, Initial residual = 7.49048223856425e-06, Final residual = 6.51394136053669e-08, No Iterations 4
GAMG:  Solving for p, Initial residual = 2.02140473239923e-06, Final residual = 1.95275982864045e-08, No Iterations 4
GAMG:  Solving for p, Initial residual = 6.45832527039228e-07, Final residual = 7.34815971719683e-09, No Iterations 4
time step continuity errors : sum local = 5.084326953876e-08, global = 4.81550639515341e-09, cumulative = 6.75644954678554e-07
smoothSolver:  Solving for omega, Initial residual = 0.000119959346980372, Final residual = 1.15355781018847e-05, No Iterations 3
smoothSolver:  Solving for k, Initial residual = 0.000243681753786082, Final residual = 2.16651487072515e-05, No Iterations 3
ExecutionTime = 484.77 s  ClockTime = 485 s

Time = 1996

smoothSolver:  Solving for Ux, Initial residual = 0.000217109547802561, Final residual = 1.01476939915401e-05, No Iterations 2
smoothSolver:  Solving for Uy, Initial residual = 0.000175157689419938, Final residual = 8.07963098777327e-06, No Iterations 2
smoothSolver:  Solving for Uz, Initial residual = 0.00021729803779004, Final residual = 1.1071519752869e-05, No Iterations 2
GAMG:  Solving for p, Initial residual = 0.00231913457353275, Final residual = 1.66256405572861e-05, No Iterations 3
GAMG:  Solving for p, Initial residual = 0.000185499631536516, Final residual = 1.0970635599603e-06, No Iterations 4
GAMG:  Solving for p, Initial residual = 2.94998935376163e-05, Final residual = 2.21766096478037e-07, No Iterations 4
GAMG:  Solving for p, Initial residual = 7.39794317123392e-06, Final residual = 5.94944581244328e-08, No Iterations 4
GAMG:  Solving for p, Initial residual = 1.99282067335748e-06, Final residual = 1.78206303786513e-08, No Iterations 4
GAMG:  Solving for p, Initial residual = 6.42078776394832e-07, Final residual = 9.86472949536899e-09, No Iterations 3
time step continuity errors : sum local = 6.82579882202993e-08, global = 7.18713600251043e-09, cumulative = 6.82832090681065e-07
smoothSolver:  Solving for omega, Initial residual = 0.000119070941458072, Final residual = 1.1416497183052e-05, No Iterations 3
smoothSolver:  Solving for k, Initial residual = 0.000240860855052066, Final residual = 2.1353680782512e-05, No Iterations 3
ExecutionTime = 484.99 s  ClockTime = 485 s

Time = 1997

smoothSolver:  Solving for Ux, Initial residual = 0.000216434983908675, Final residual = 1.00280536674921e-05, No Iterations 2
smoothSolver:  Solving for Uy, Initial residual = 0.000174434541565145, Final residual = 8.0062272732006e-06, No Iterations 2
smoothSolver:  Solving for Uz, Initial residual = 0.000214791723779389, Final residual = 1.08894883063503e-05, No Iterations 2
GAMG:  Solving for p, Initial residual = 0.00228751021850685, Final residual = 1.6552348713642e-05, No Iterations 3
GAMG:  Solving for p, Initial residual = 0.000185697057301251, Final residual = 1.05480849947381e-06, No Iterations 4
GAMG:  Solving for p, Initial residual = 2.9091338571227e-05, Final residual = 2.13838133475696e-07, No Iterations 4
GAMG:  Solving for p, Initial residual = 7.22438814059358e-06, Final residual = 6.10741737713949e-08, No Iterations 4
GAMG:  Solving for p, Initial residual = 1.9671728763638e-06, Final residual = 1.85882312997142e-08, No Iterations 4
GAMG:  Solving for p, Initial residual = 6.35276746566172e-07, Final residual = 7.26657383000008e-09, No Iterations 4
time step continuity errors : sum local = 5.02808080560479e-08, global = 5.04535805932494e-09, cumulative = 6.8787744874039e-07
smoothSolver:  Solving for omega, Initial residual = 0.000117897807209908, Final residual = 1.12837451984462e-05, No Iterations 3
smoothSolver:  Solving for k, Initial residual = 0.000237744500192282, Final residual = 2.10183292192217e-05, No Iterations 3
ExecutionTime = 485.22 s  ClockTime = 485 s

Time = 1998

smoothSolver:  Solving for Ux, Initial residual = 0.00021587989927668, Final residual = 9.90468421144263e-06, No Iterations 2
smoothSolver:  Solving for Uy, Initial residual = 0.000173422979525835, Final residual = 7.92406681023405e-06, No Iterations 2
smoothSolver:  Solving for Uz, Initial residual = 0.000212140089151155, Final residual = 1.06832000675487e-05, No Iterations 2
GAMG:  Solving for p, Initial residual = 0.00225784523935112, Final residual = 1.66935177049143e-05, No Iterations 3
GAMG:  Solving for p, Initial residual = 0.000187759346211578, Final residual = 1.11533055475934e-06, No Iterations 4
GAMG:  Solving for p, Initial residual = 2.87539196443957e-05, Final residual = 2.44721182999287e-07, No Iterations 4
GAMG:  Solving for p, Initial residual = 7.18289125990869e-06, Final residual = 6.86250890384725e-08, No Iterations 4
GAMG:  Solving for p, Initial residual = 1.9616219804286e-06, Final residual = 1.53798644919709e-08, No Iterations 5
GAMG:  Solving for p, Initial residual = 6.35912311138079e-07, Final residual = 7.06160292176538e-09, No Iterations 4
time step continuity errors : sum local = 4.88617602253054e-08, global = 5.53977245937309e-09, cumulative = 6.93417221199763e-07
smoothSolver:  Solving for omega, Initial residual = 0.000116659101248987, Final residual = 1.11153717779291e-05, No Iterations 3
smoothSolver:  Solving for k, Initial residual = 0.000234249909679996, Final residual = 2.06315583615306e-05, No Iterations 3
ExecutionTime = 485.45 s  ClockTime = 486 s

Time = 1999

smoothSolver:  Solving for Ux, Initial residual = 0.00021515229139356, Final residual = 9.77369383178039e-06, No Iterations 2
smoothSolver:  Solving for Uy, Initial residual = 0.000172041178468964, Final residual = 7.82354264854948e-06, No Iterations 2
smoothSolver:  Solving for Uz, Initial residual = 0.00020930824076306, Final residual = 1.04472922478418e-05, No Iterations 2
GAMG:  Solving for p, Initial residual = 0.00224966671524029, Final residual = 1.68762578973275e-05, No Iterations 3
GAMG:  Solving for p, Initial residual = 0.000188337636726631, Final residual = 1.24990617660906e-06, No Iterations 4
GAMG:  Solving for p, Initial residual = 2.93403391820441e-05, Final residual = 1.88860354359883e-07, No Iterations 5
GAMG:  Solving for p, Initial residual = 7.39089736517483e-06, Final residual = 6.41999393188344e-08, No Iterations 4
GAMG:  Solving for p, Initial residual = 2.01043318289111e-06, Final residual = 1.42539321656898e-08, No Iterations 5
GAMG:  Solving for p, Initial residual = 6.58907053169672e-07, Final residual = 9.37443002628991e-09, No Iterations 3
time step continuity errors : sum local = 6.48628005460429e-08, global = 7.13300774169455e-09, cumulative = 7.00550228941457e-07
smoothSolver:  Solving for omega, Initial residual = 0.000115263207133656, Final residual = 1.09209375115436e-05, No Iterations 3
smoothSolver:  Solving for k, Initial residual = 0.000230427202747855, Final residual = 2.01988096775968e-05, No Iterations 3
ExecutionTime = 485.69 s  ClockTime = 486 s

Time = 2000

smoothSolver:  Solving for Ux, Initial residual = 0.00021435157420336, Final residual = 9.66295735952392e-06, No Iterations 2
smoothSolver:  Solving for Uy, Initial residual = 0.000170402206903814, Final residual = 7.71804256275337e-06, No Iterations 2
smoothSolver:  Solving for Uz, Initial residual = 0.000206052523501047, Final residual = 1.02077251639485e-05, No Iterations 2
GAMG:  Solving for p, Initial residual = 0.00223089467190035, Final residual = 1.70681514802573e-05, No Iterations 3
GAMG:  Solving for p, Initial residual = 0.000187667611737931, Final residual = 1.40007601669474e-06, No Iterations 4
GAMG:  Solving for p, Initial residual = 2.99349932985253e-05, Final residual = 2.10609285109759e-07, No Iterations 5
GAMG:  Solving for p, Initial residual = 7.52718172090489e-06, Final residual = 6.87992969342998e-08, No Iterations 4
GAMG:  Solving for p, Initial residual = 2.05369654952936e-06, Final residual = 1.44948116835579e-08, No Iterations 5
GAMG:  Solving for p, Initial residual = 6.71370657355521e-07, Final residual = 9.52745925748994e-09, No Iterations 3
time step continuity errors : sum local = 6.59192826226886e-08, global = 6.88087071239043e-09, cumulative = 7.07431099653848e-07
smoothSolver:  Solving for omega, Initial residual = 0.000113895486491287, Final residual = 1.07171777536526e-05, No Iterations 3
smoothSolver:  Solving for k, Initial residual = 0.000226647815706824, Final residual = 1.97285444801595e-05, No Iterations 3
ExecutionTime = 486.04 s  ClockTime = 486 s

End

Finalising parallel run
