/*---------------------------------------------------------------------------*\
| =========                 |                                                 |
| \\      /  F ield         | OpenFOAM: The Open Source CFD Toolbox           |
|  \\    /   O peration     | Version:  2312                                  |
|   \\  /    A nd           | Website:  www.openfoam.com                      |
|    \\/     M anipulation  |                                                 |
\*---------------------------------------------------------------------------*/
Build  : _e651d635-20240208 OPENFOAM=2312 patch=240220 version=2312
Arch   : "LSB;label=32;scalar=64"
Exec   : /usr/lib/openfoam/openfoam2312/platforms/linux64GccDPInt32Opt/bin/simpleFoam -parallel
Date   : Nov 13 2025
Time   : 14:39:49
Host   : dmanzsvr
PID    : 4009142
I/O    : uncollated
Case   : /home/dman/Desktop/cfd/FreeCAD/case
nProcs : 4
Hosts  :
(
    (dmanzsvr 4)
)
Pstream initialized with:
    floatTransfer      : false
    nProcsSimpleSum    : 0
    nonBlockingExchange: 0 (tuning: 0)
    exchange algorithm : 0
    commsType          : nonBlocking
    polling iterations : 0
trapFpe: Floating point exception trapping enabled (FOAM_SIGFPE).
fileModificationChecking : Monitoring run-time modified files using timeStampMaster (fileModificationSkew 5, maxFileModificationPolls 20)
allowSystemOperations : Allowing user-supplied system call operations

// * * * * * * * * * * * * * * * * * * * * * * * * * * * * * * * * * * * * * //
Create time

Create mesh for time = 0


SIMPLE: convergence criteria
    field "(p|p_rgh)"	 tolerance 0.001
    field U	 tolerance 0.001
    field "(k|epsilon|omega|f|v2|nuTilda|gammaInt|ReThetat)"	 tolerance 0.001

Reading field p

Reading field U

Reading/calculating face flux field phi

Selecting incompressible transport model Newtonian
Selecting turbulence model type RAS
Selecting RAS turbulence model kOmegaSST
Selecting patchDistMethod meshWave
RAS
{
    RASModel        kOmegaSST;
    turbulence      on;
    printCoeffs     on;
    alphaK1         0.85;
    alphaK2         1;
    alphaOmega1     0.5;
    alphaOmega2     0.856;
    gamma1          0.555555555555556;
    gamma2          0.44;
    beta1           0.075;
    beta2           0.0828;
    betaStar        0.09;
    a1              0.31;
    b1              1;
    c1              10;
    F3              false;
    decayControl    false;
    kInf            0;
    omegaInf        0;
}

No MRF models present

No finite volume options present

Starting time loop

Time = 1

smoothSolver:  Solving for Ux, Initial residual = 1, Final residual = 0.000254787472586498, No Iterations 1
smoothSolver:  Solving for Uy, Initial residual = 1, Final residual = 0.0201070399498286, No Iterations 1
smoothSolver:  Solving for Uz, Initial residual = 1, Final residual = 0.0812577600791286, No Iterations 1
GAMG:  Solving for p, Initial residual = 1, Final residual = 0.000137098113471078, No Iterations 1
GAMG:  Solving for p, Initial residual = 0.0611505433742868, Final residual = 0.000264410805689806, No Iterations 6
GAMG:  Solving for p, Initial residual = 0.00544278611727954, Final residual = 4.36212292564212e-05, No Iterations 2
GAMG:  Solving for p, Initial residual = 0.00075886760869903, Final residual = 2.48156808872041e-06, No Iterations 3
GAMG:  Solving for p, Initial residual = 0.000157283510636631, Final residual = 1.29239815341668e-06, No Iterations 2
GAMG:  Solving for p, Initial residual = 4.28665082995624e-05, Final residual = 1.25629833080173e-07, No Iterations 3
time step continuity errors : sum local = 6.87244270443597e-05, global = -2.32102027457192e-05, cumulative = -2.32102027457192e-05
smoothSolver:  Solving for omega, Initial residual = 0.0389454204175078, Final residual = 0.00220541750827426, No Iterations 3
smoothSolver:  Solving for k, Initial residual = 0.999999999934392, Final residual = 0.0739470997174591, No Iterations 2
ExecutionTime = 0.31 s  ClockTime = 0 s

Time = 2

smoothSolver:  Solving for Ux, Initial residual = 0.0984198886129821, Final residual = 0.00120608497800886, No Iterations 2
smoothSolver:  Solving for Uy, Initial residual = 0.494856839024095, Final residual = 0.0304305890783144, No Iterations 1
smoothSolver:  Solving for Uz, Initial residual = 0.432250068667732, Final residual = 0.0237833055625675, No Iterations 1
GAMG:  Solving for p, Initial residual = 0.999778003268337, Final residual = 0.00740889765106123, No Iterations 1
GAMG:  Solving for p, Initial residual = 0.0898630101905139, Final residual = 0.0011696412655961, No Iterations 20
GAMG:  Solving for p, Initial residual = 0.0123023174242584, Final residual = 0.000118298065297195, No Iterations 5
GAMG:  Solving for p, Initial residual = 0.00171558998750696, Final residual = 1.56519826213927e-05, No Iterations 8
GAMG:  Solving for p, Initial residual = 0.000450366251177864, Final residual = 3.90664735061143e-06, No Iterations 7
GAMG:  Solving for p, Initial residual = 0.000127211310716426, Final residual = 1.25849817032307e-06, No Iterations 7
time step continuity errors : sum local = 0.000933160618851993, global = -4.45750095938156e-06, cumulative = -2.76677037051008e-05
smoothSolver:  Solving for omega, Initial residual = 0.0193910342511877, Final residual = 0.00115733394788111, No Iterations 4
smoothSolver:  Solving for k, Initial residual = 0.333648062400137, Final residual = 0.0215318306686999, No Iterations 3
ExecutionTime = 0.56 s  ClockTime = 0 s

Time = 3

smoothSolver:  Solving for Ux, Initial residual = 0.295999828601127, Final residual = 0.00623059364499144, No Iterations 2
smoothSolver:  Solving for Uy, Initial residual = 0.475140239393339, Final residual = 0.0358642901954652, No Iterations 1
smoothSolver:  Solving for Uz, Initial residual = 0.484176290203711, Final residual = 0.0434340979411563, No Iterations 1
GAMG:  Solving for p, Initial residual = 0.990589558756384, Final residual = 0.00644272539649633, No Iterations 1
GAMG:  Solving for p, Initial residual = 0.018622888869074, Final residual = 7.04864152835426e-05, No Iterations 6
GAMG:  Solving for p, Initial residual = 0.00539807410705814, Final residual = 5.36628450507401e-05, No Iterations 2
GAMG:  Solving for p, Initial residual = 0.000735864393633393, Final residual = 7.17674552066245e-06, No Iterations 3
GAMG:  Solving for p, Initial residual = 0.000176855370221422, Final residual = 1.71196598719635e-06, No Iterations 6
GAMG:  Solving for p, Initial residual = 4.76549428330673e-05, Final residual = 4.73543530484034e-07, No Iterations 9
time step continuity errors : sum local = 6.59105843220433e-05, global = -2.03341970610011e-05, cumulative = -4.80019007661018e-05
smoothSolver:  Solving for omega, Initial residual = 0.021498761772826, Final residual = 0.00203125309287352, No Iterations 3
smoothSolver:  Solving for k, Initial residual = 0.371299727356699, Final residual = 0.0214192577008929, No Iterations 3
ExecutionTime = 0.74 s  ClockTime = 1 s

Time = 4

smoothSolver:  Solving for Ux, Initial residual = 0.441552735537335, Final residual = 0.00892353543848665, No Iterations 2
smoothSolver:  Solving for Uy, Initial residual = 0.247633298255239, Final residual = 0.00671913459131847, No Iterations 2
smoothSolver:  Solving for Uz, Initial residual = 0.295594258518179, Final residual = 0.00697370695933444, No Iterations 2
GAMG:  Solving for p, Initial residual = 0.982091050110319, Final residual = 0.00753026374137678, No Iterations 3
GAMG:  Solving for p, Initial residual = 0.0249177141341837, Final residual = 0.00021679943371428, No Iterations 4
GAMG:  Solving for p, Initial residual = 0.00373042166492001, Final residual = 3.12215510029996e-05, No Iterations 3
GAMG:  Solving for p, Initial residual = 0.000675320448063367, Final residual = 3.965756947889e-06, No Iterations 4
GAMG:  Solving for p, Initial residual = 0.000186872671269141, Final residual = 1.4818535335946e-06, No Iterations 3
GAMG:  Solving for p, Initial residual = 5.57205616146531e-05, Final residual = 3.58683614410639e-07, No Iterations 4
time step continuity errors : sum local = 5.37696951463736e-05, global = 2.66007584148285e-06, cumulative = -4.5341824924619e-05
smoothSolver:  Solving for omega, Initial residual = 0.013158253509388, Final residual = 0.00111222154288319, No Iterations 3
smoothSolver:  Solving for k, Initial residual = 0.151752491286835, Final residual = 0.00889608079552854, No Iterations 3
ExecutionTime = 0.9 s  ClockTime = 1 s

Time = 5

smoothSolver:  Solving for Ux, Initial residual = 0.0753243500737042, Final residual = 0.00183460955073811, No Iterations 2
smoothSolver:  Solving for Uy, Initial residual = 0.251300504459215, Final residual = 0.00636500766285098, No Iterations 2
smoothSolver:  Solving for Uz, Initial residual = 0.389025632798767, Final residual = 0.00749465522264495, No Iterations 2
GAMG:  Solving for p, Initial residual = 0.97611072397887, Final residual = 0.00933867066055572, No Iterations 3
GAMG:  Solving for p, Initial residual = 0.0151413933054919, Final residual = 0.000141026140059338, No Iterations 4
GAMG:  Solving for p, Initial residual = 0.00258796671472689, Final residual = 2.1721672381746e-05, No Iterations 3
GAMG:  Solving for p, Initial residual = 0.000489897322186721, Final residual = 3.03332287592155e-06, No Iterations 4
GAMG:  Solving for p, Initial residual = 0.000138908599999741, Final residual = 1.20298513046696e-06, No Iterations 3
GAMG:  Solving for p, Initial residual = 4.10240298516957e-05, Final residual = 3.83868725674218e-07, No Iterations 4
time step continuity errors : sum local = 7.78581279382556e-05, global = 5.3420216309206e-06, cumulative = -3.99998032936984e-05
smoothSolver:  Solving for omega, Initial residual = 0.0153775680720036, Final residual = 0.00113082507286825, No Iterations 3
smoothSolver:  Solving for k, Initial residual = 0.121467947502046, Final residual = 0.00586876449398807, No Iterations 3
ExecutionTime = 1.06 s  ClockTime = 1 s

Time = 6

smoothSolver:  Solving for Ux, Initial residual = 0.359485150648649, Final residual = 0.00709763154373052, No Iterations 2
smoothSolver:  Solving for Uy, Initial residual = 0.183478441588296, Final residual = 0.00423773615889511, No Iterations 2
smoothSolver:  Solving for Uz, Initial residual = 0.247252715163087, Final residual = 0.00449462121020932, No Iterations 2
GAMG:  Solving for p, Initial residual = 0.529182823066812, Final residual = 0.00319715419991133, No Iterations 2
GAMG:  Solving for p, Initial residual = 0.0163943595898821, Final residual = 0.000113038691841792, No Iterations 5
GAMG:  Solving for p, Initial residual = 0.00455035762500884, Final residual = 3.09382028627163e-05, No Iterations 3
GAMG:  Solving for p, Initial residual = 0.000703503623225296, Final residual = 5.73182488412958e-06, No Iterations 5
GAMG:  Solving for p, Initial residual = 0.000183936355379113, Final residual = 1.58572721772756e-06, No Iterations 6
GAMG:  Solving for p, Initial residual = 5.09030839180159e-05, Final residual = 4.71995884653898e-07, No Iterations 7
time step continuity errors : sum local = 1.80197860744022e-05, global = -2.09148090253168e-06, cumulative = -4.20912841962301e-05
smoothSolver:  Solving for omega, Initial residual = 0.0153845732657852, Final residual = 0.000965690505030962, No Iterations 3
smoothSolver:  Solving for k, Initial residual = 0.0945678916957538, Final residual = 0.0037454608423189, No Iterations 3
ExecutionTime = 1.24 s  ClockTime = 1 s

Time = 7

smoothSolver:  Solving for Ux, Initial residual = 0.390731070070807, Final residual = 0.00789901197272571, No Iterations 2
smoothSolver:  Solving for Uy, Initial residual = 0.135093491202105, Final residual = 0.00451912748601231, No Iterations 2
smoothSolver:  Solving for Uz, Initial residual = 0.206188391936011, Final residual = 0.00521634915495633, No Iterations 2
GAMG:  Solving for p, Initial residual = 0.478255076319047, Final residual = 0.00389581302698888, No Iterations 4
GAMG:  Solving for p, Initial residual = 0.0174910426779979, Final residual = 9.37954813392695e-05, No Iterations 4
GAMG:  Solving for p, Initial residual = 0.0020611649604946, Final residual = 1.76649500618952e-05, No Iterations 3
GAMG:  Solving for p, Initial residual = 0.000418156580780171, Final residual = 2.93332313615989e-06, No Iterations 4
GAMG:  Solving for p, Initial residual = 0.000115143082999036, Final residual = 8.65044408827834e-07, No Iterations 4
GAMG:  Solving for p, Initial residual = 3.5747087238983e-05, Final residual = 3.48285420350122e-07, No Iterations 4
time step continuity errors : sum local = 4.16942975607991e-05, global = -1.01605582442425e-06, cumulative = -4.31073400206543e-05
smoothSolver:  Solving for omega, Initial residual = 0.00935179878896175, Final residual = 0.000573063677809552, No Iterations 3
smoothSolver:  Solving for k, Initial residual = 0.0743202339611008, Final residual = 0.00742621001267826, No Iterations 2
ExecutionTime = 1.4 s  ClockTime = 1 s

Time = 8

smoothSolver:  Solving for Ux, Initial residual = 0.0693847293876014, Final residual = 0.00154431390468599, No Iterations 2
smoothSolver:  Solving for Uy, Initial residual = 0.159267594038258, Final residual = 0.0046941416049399, No Iterations 2
smoothSolver:  Solving for Uz, Initial residual = 0.298606964887851, Final residual = 0.00693189042354234, No Iterations 2
GAMG:  Solving for p, Initial residual = 0.948772270163863, Final residual = 0.00717307031082474, No Iterations 4
GAMG:  Solving for p, Initial residual = 0.0123967064588995, Final residual = 7.94923030638325e-05, No Iterations 4
GAMG:  Solving for p, Initial residual = 0.00157792934886821, Final residual = 1.45813527898235e-05, No Iterations 3
GAMG:  Solving for p, Initial residual = 0.000337078259106131, Final residual = 2.65912393753942e-06, No Iterations 4
GAMG:  Solving for p, Initial residual = 9.24415673595494e-05, Final residual = 9.03905852904833e-07, No Iterations 4
GAMG:  Solving for p, Initial residual = 2.8211979732498e-05, Final residual = 2.45066172806581e-07, No Iterations 6
time step continuity errors : sum local = 2.64636414423515e-05, global = -2.59556969616167e-06, cumulative = -4.5702909716816e-05
smoothSolver:  Solving for omega, Initial residual = 0.00742593359681486, Final residual = 0.000428168506370668, No Iterations 3
smoothSolver:  Solving for k, Initial residual = 0.0778980005207363, Final residual = 0.00683655625902071, No Iterations 2
ExecutionTime = 1.58 s  ClockTime = 1 s

Time = 9

smoothSolver:  Solving for Ux, Initial residual = 0.266376814895779, Final residual = 0.00591540099031199, No Iterations 2
smoothSolver:  Solving for Uy, Initial residual = 0.133391848537835, Final residual = 0.00360512884139523, No Iterations 2
smoothSolver:  Solving for Uz, Initial residual = 0.275935375566062, Final residual = 0.00580670325455434, No Iterations 2
GAMG:  Solving for p, Initial residual = 0.936137377100231, Final residual = 0.00723510609195837, No Iterations 3
GAMG:  Solving for p, Initial residual = 0.0945250777627292, Final residual = 0.000918469087506384, No Iterations 4
GAMG:  Solving for p, Initial residual = 0.00997194036601895, Final residual = 5.56801635144178e-05, No Iterations 4
GAMG:  Solving for p, Initial residual = 0.0012895431961904, Final residual = 1.1961376858441e-05, No Iterations 4
GAMG:  Solving for p, Initial residual = 0.000309232688085825, Final residual = 2.53522468096365e-06, No Iterations 6
GAMG:  Solving for p, Initial residual = 8.69021364698494e-05, Final residual = 7.30532710370654e-07, No Iterations 6
time step continuity errors : sum local = 7.59044653213743e-06, global = 1.17678039289162e-06, cumulative = -4.45261293239244e-05
smoothSolver:  Solving for omega, Initial residual = 0.00676832170496605, Final residual = 0.000362600416697024, No Iterations 3
smoothSolver:  Solving for k, Initial residual = 0.0752890581899977, Final residual = 0.00628277386470794, No Iterations 2
ExecutionTime = 1.75 s  ClockTime = 2 s

Time = 10

smoothSolver:  Solving for Ux, Initial residual = 0.157792291959807, Final residual = 0.00353481178840872, No Iterations 2
smoothSolver:  Solving for Uy, Initial residual = 0.0998568307342854, Final residual = 0.0033812751310505, No Iterations 2
smoothSolver:  Solving for Uz, Initial residual = 0.255321570350847, Final residual = 0.00678633029562784, No Iterations 2
GAMG:  Solving for p, Initial residual = 0.918990299472947, Final residual = 0.00321079220053779, No Iterations 5
GAMG:  Solving for p, Initial residual = 0.0137581825198464, Final residual = 9.4728262560173e-05, No Iterations 3
GAMG:  Solving for p, Initial residual = 0.00171047648014622, Final residual = 1.63436934999486e-05, No Iterations 3
GAMG:  Solving for p, Initial residual = 0.000363839882639826, Final residual = 2.2928749904564e-06, No Iterations 4
GAMG:  Solving for p, Initial residual = 0.000100650328827787, Final residual = 6.84403719418521e-07, No Iterations 4
GAMG:  Solving for p, Initial residual = 3.1276840254678e-05, Final residual = 2.89187066177922e-07, No Iterations 4
time step continuity errors : sum local = 2.35367310859252e-05, global = -1.60694382895971e-07, cumulative = -4.46868237068203e-05
smoothSolver:  Solving for omega, Initial residual = 0.00566345795170292, Final residual = 0.00032043559861222, No Iterations 3
smoothSolver:  Solving for k, Initial residual = 0.0660957523188478, Final residual = 0.005622759164234, No Iterations 2
ExecutionTime = 1.92 s  ClockTime = 2 s

Time = 11

smoothSolver:  Solving for Ux, Initial residual = 0.0642889276451835, Final residual = 0.00144585509761922, No Iterations 2
smoothSolver:  Solving for Uy, Initial residual = 0.106199463798849, Final residual = 0.0036124849422045, No Iterations 2
smoothSolver:  Solving for Uz, Initial residual = 0.211653305974925, Final residual = 0.0059599332568587, No Iterations 2
GAMG:  Solving for p, Initial residual = 0.57103261934657, Final residual = 0.00545317710900045, No Iterations 4
GAMG:  Solving for p, Initial residual = 0.0116674131189542, Final residual = 0.000110809822815436, No Iterations 3
GAMG:  Solving for p, Initial residual = 0.00150850572491964, Final residual = 1.01375490736111e-05, No Iterations 4
GAMG:  Solving for p, Initial residual = 0.000329446713682642, Final residual = 2.50981141336774e-06, No Iterations 4
GAMG:  Solving for p, Initial residual = 8.61138348995886e-05, Final residual = 6.55137936086659e-07, No Iterations 5
GAMG:  Solving for p, Initial residual = 2.65699606742177e-05, Final residual = 2.4091572499529e-07, No Iterations 5
time step continuity errors : sum local = 1.39268023455104e-05, global = 1.89929633818689e-06, cumulative = -4.27875273686335e-05
smoothSolver:  Solving for omega, Initial residual = 0.00476357596357143, Final residual = 0.000277350046026064, No Iterations 3
smoothSolver:  Solving for k, Initial residual = 0.0626464877813186, Final residual = 0.00533496041352578, No Iterations 2
ExecutionTime = 2.09 s  ClockTime = 2 s

Time = 12

smoothSolver:  Solving for Ux, Initial residual = 0.161336388407623, Final residual = 0.00370055155649174, No Iterations 2
smoothSolver:  Solving for Uy, Initial residual = 0.0882052051634157, Final residual = 0.0027807541371463, No Iterations 2
smoothSolver:  Solving for Uz, Initial residual = 0.161083210292521, Final residual = 0.00395356843578478, No Iterations 2
GAMG:  Solving for p, Initial residual = 0.289081867012217, Final residual = 0.00266308105354363, No Iterations 4
GAMG:  Solving for p, Initial residual = 0.0274899582362441, Final residual = 0.000160524556684977, No Iterations 4
GAMG:  Solving for p, Initial residual = 0.00307654167105458, Final residual = 1.63016277882425e-05, No Iterations 4
GAMG:  Solving for p, Initial residual = 0.000588189113675667, Final residual = 3.84814224420923e-06, No Iterations 4
GAMG:  Solving for p, Initial residual = 0.000173279068519648, Final residual = 1.20940291538015e-06, No Iterations 4
GAMG:  Solving for p, Initial residual = 5.40780778156349e-05, Final residual = 5.04160667089974e-07, No Iterations 4
time step continuity errors : sum local = 9.67584763645072e-06, global = -1.66458220828421e-07, cumulative = -4.29539855894619e-05
smoothSolver:  Solving for omega, Initial residual = 0.00425737092496699, Final residual = 0.000250157622175656, No Iterations 3
smoothSolver:  Solving for k, Initial residual = 0.0613514349977803, Final residual = 0.00514054672915604, No Iterations 2
ExecutionTime = 2.26 s  ClockTime = 2 s

Time = 13

smoothSolver:  Solving for Ux, Initial residual = 0.0997190959401771, Final residual = 0.00228368414228016, No Iterations 2
smoothSolver:  Solving for Uy, Initial residual = 0.0727788909786471, Final residual = 0.00266648851070686, No Iterations 2
smoothSolver:  Solving for Uz, Initial residual = 0.160747206317913, Final residual = 0.00443477430185345, No Iterations 2
GAMG:  Solving for p, Initial residual = 0.372854914383519, Final residual = 0.00167429127725915, No Iterations 5
GAMG:  Solving for p, Initial residual = 0.0129361515602824, Final residual = 9.17297872069238e-05, No Iterations 3
GAMG:  Solving for p, Initial residual = 0.00158051178996312, Final residual = 9.52727516679957e-06, No Iterations 4
GAMG:  Solving for p, Initial residual = 0.000330169612738305, Final residual = 2.30401012246133e-06, No Iterations 4
GAMG:  Solving for p, Initial residual = 9.11172824967701e-05, Final residual = 8.10382743570856e-07, No Iterations 4
GAMG:  Solving for p, Initial residual = 2.86827355549454e-05, Final residual = 2.35532514399439e-07, No Iterations 6
time step continuity errors : sum local = 1.21888100934009e-05, global = -4.80260499182121e-07, cumulative = -4.3434246088644e-05
smoothSolver:  Solving for omega, Initial residual = 0.00389181201732738, Final residual = 0.000224729226086976, No Iterations 3
smoothSolver:  Solving for k, Initial residual = 0.0577358654851368, Final residual = 0.00475315469154256, No Iterations 2
ExecutionTime = 2.43 s  ClockTime = 2 s

Time = 14

smoothSolver:  Solving for Ux, Initial residual = 0.0738688096871673, Final residual = 0.00203663233721994, No Iterations 2
smoothSolver:  Solving for Uy, Initial residual = 0.0753875943265082, Final residual = 0.00269873094773055, No Iterations 2
smoothSolver:  Solving for Uz, Initial residual = 0.182847905754553, Final residual = 0.00514538419597282, No Iterations 2
GAMG:  Solving for p, Initial residual = 0.754449008961286, Final residual = 0.00271584890456121, No Iterations 5
GAMG:  Solving for p, Initial residual = 0.0116331215237084, Final residual = 0.000102765817686544, No Iterations 3
GAMG:  Solving for p, Initial residual = 0.00150703324946992, Final residual = 1.12710346467182e-05, No Iterations 4
GAMG:  Solving for p, Initial residual = 0.000324521762848927, Final residual = 3.16341443841171e-06, No Iterations 4
GAMG:  Solving for p, Initial residual = 9.17416995192967e-05, Final residual = 7.62668432985967e-07, No Iterations 6
GAMG:  Solving for p, Initial residual = 2.80132755164585e-05, Final residual = 2.46606963076459e-07, No Iterations 6
time step continuity errors : sum local = 7.16299902558473e-06, global = -5.66282543177396e-07, cumulative = -4.40005286318214e-05
smoothSolver:  Solving for omega, Initial residual = 0.0036350260427346, Final residual = 0.000203060772481918, No Iterations 3
smoothSolver:  Solving for k, Initial residual = 0.0518228440584014, Final residual = 0.00418273455334969, No Iterations 2
ExecutionTime = 2.62 s  ClockTime = 2 s

Time = 15

smoothSolver:  Solving for Ux, Initial residual = 0.100170746658846, Final residual = 0.00277242939802346, No Iterations 2
smoothSolver:  Solving for Uy, Initial residual = 0.0688637794168234, Final residual = 0.00241228495235739, No Iterations 2
smoothSolver:  Solving for Uz, Initial residual = 0.192846473057482, Final residual = 0.00520268825495908, No Iterations 2
GAMG:  Solving for p, Initial residual = 0.330967053985312, Final residual = 0.00166074399996437, No Iterations 5
GAMG:  Solving for p, Initial residual = 0.0193354524450875, Final residual = 0.000128519780470622, No Iterations 3
GAMG:  Solving for p, Initial residual = 0.00223188676778653, Final residual = 1.67869327731147e-05, No Iterations 4
GAMG:  Solving for p, Initial residual = 0.000468671741567758, Final residual = 3.86634512471312e-06, No Iterations 4
GAMG:  Solving for p, Initial residual = 0.000136435846920865, Final residual = 1.23705121669596e-06, No Iterations 4
GAMG:  Solving for p, Initial residual = 4.33674430309114e-05, Final residual = 3.47501797457762e-07, No Iterations 5
time step continuity errors : sum local = 6.72028166978429e-06, global = 2.48356735513293e-07, cumulative = -4.37521718963081e-05
smoothSolver:  Solving for omega, Initial residual = 0.00342804051147456, Final residual = 0.000185585722042796, No Iterations 3
smoothSolver:  Solving for k, Initial residual = 0.0462951826992596, Final residual = 0.00368239088443907, No Iterations 2
ExecutionTime = 2.8 s  ClockTime = 3 s

Time = 16

smoothSolver:  Solving for Ux, Initial residual = 0.0471205266363417, Final residual = 0.00159049402764165, No Iterations 2
smoothSolver:  Solving for Uy, Initial residual = 0.0607557157450432, Final residual = 0.00229105013957, No Iterations 2
smoothSolver:  Solving for Uz, Initial residual = 0.188866524779049, Final residual = 0.00539125290111189, No Iterations 2
GAMG:  Solving for p, Initial residual = 0.621929328386466, Final residual = 0.00413376088642297, No Iterations 5
GAMG:  Solving for p, Initial residual = 0.0122829515495857, Final residual = 0.000111035286115042, No Iterations 3
GAMG:  Solving for p, Initial residual = 0.00148743623362315, Final residual = 1.07227566457292e-05, No Iterations 4
GAMG:  Solving for p, Initial residual = 0.000295390757342593, Final residual = 2.38523383880969e-06, No Iterations 4
GAMG:  Solving for p, Initial residual = 8.08929240790436e-05, Final residual = 7.49927384421547e-07, No Iterations 4
GAMG:  Solving for p, Initial residual = 2.44642697394505e-05, Final residual = 2.28379020497099e-07, No Iterations 5
time step continuity errors : sum local = 7.57206831203726e-06, global = 5.08449643677817e-07, cumulative = -4.32437222526303e-05
smoothSolver:  Solving for omega, Initial residual = 0.00314979948671145, Final residual = 0.000170271449419586, No Iterations 3
smoothSolver:  Solving for k, Initial residual = 0.0416278267409156, Final residual = 0.00329190299934828, No Iterations 2
ExecutionTime = 2.97 s  ClockTime = 3 s

Time = 17

smoothSolver:  Solving for Ux, Initial residual = 0.0525439705876207, Final residual = 0.00133398146720478, No Iterations 2
smoothSolver:  Solving for Uy, Initial residual = 0.0583440795448682, Final residual = 0.00223631477660737, No Iterations 2
smoothSolver:  Solving for Uz, Initial residual = 0.163622286256336, Final residual = 0.00486180580098674, No Iterations 2
GAMG:  Solving for p, Initial residual = 0.301838832323932, Final residual = 0.00253819339807014, No Iterations 4
GAMG:  Solving for p, Initial residual = 0.0132685409558132, Final residual = 0.000104148496709688, No Iterations 4
GAMG:  Solving for p, Initial residual = 0.00168286742476194, Final residual = 1.24654090100035e-05, No Iterations 4
GAMG:  Solving for p, Initial residual = 0.000327111360146581, Final residual = 2.68258087921891e-06, No Iterations 5
GAMG:  Solving for p, Initial residual = 9.25214244116972e-05, Final residual = 8.17450103084391e-07, No Iterations 5
GAMG:  Solving for p, Initial residual = 2.79103861651287e-05, Final residual = 2.51229884624238e-07, No Iterations 6
time step continuity errors : sum local = 3.86896780033699e-06, global = 4.68374964344169e-07, cumulative = -4.27753472882861e-05
smoothSolver:  Solving for omega, Initial residual = 0.00287408417932538, Final residual = 0.000157148844072943, No Iterations 3
smoothSolver:  Solving for k, Initial residual = 0.0369949619314537, Final residual = 0.00296591976574754, No Iterations 2
ExecutionTime = 3.16 s  ClockTime = 3 s

Time = 18

smoothSolver:  Solving for Ux, Initial residual = 0.0611843854203914, Final residual = 0.00160491260409106, No Iterations 2
smoothSolver:  Solving for Uy, Initial residual = 0.054438781621114, Final residual = 0.00221709773906079, No Iterations 2
smoothSolver:  Solving for Uz, Initial residual = 0.152187183752885, Final residual = 0.00421229446206314, No Iterations 2
GAMG:  Solving for p, Initial residual = 0.234036645494183, Final residual = 0.000902115554329808, No Iterations 5
GAMG:  Solving for p, Initial residual = 0.0177660039030002, Final residual = 0.000121213570179359, No Iterations 3
GAMG:  Solving for p, Initial residual = 0.00214990412146796, Final residual = 1.78334173809156e-05, No Iterations 4
GAMG:  Solving for p, Initial residual = 0.000461306951714127, Final residual = 4.41920007651546e-06, No Iterations 4
GAMG:  Solving for p, Initial residual = 0.00013801494770832, Final residual = 1.07871551241058e-06, No Iterations 5
GAMG:  Solving for p, Initial residual = 4.3376986194091e-05, Final residual = 3.61294111977427e-07, No Iterations 5
time step continuity errors : sum local = 5.59829031827636e-06, global = -1.66689258708311e-07, cumulative = -4.29420365469944e-05
smoothSolver:  Solving for omega, Initial residual = 0.00268990267975228, Final residual = 0.000148338928286344, No Iterations 3
smoothSolver:  Solving for k, Initial residual = 0.032232353429331, Final residual = 0.00265420315186015, No Iterations 2
ExecutionTime = 3.33 s  ClockTime = 3 s

Time = 19

smoothSolver:  Solving for Ux, Initial residual = 0.0309984610198121, Final residual = 0.00110999913078222, No Iterations 2
smoothSolver:  Solving for Uy, Initial residual = 0.0526066445653826, Final residual = 0.00220689513814262, No Iterations 2
smoothSolver:  Solving for Uz, Initial residual = 0.156261485980402, Final residual = 0.00426253610652443, No Iterations 2
GAMG:  Solving for p, Initial residual = 0.442117754037655, Final residual = 0.00226553417737918, No Iterations 5
GAMG:  Solving for p, Initial residual = 0.012630209950808, Final residual = 8.92547293884449e-05, No Iterations 3
GAMG:  Solving for p, Initial residual = 0.00153861222027551, Final residual = 1.37388295201051e-05, No Iterations 4
GAMG:  Solving for p, Initial residual = 0.00032675748086665, Final residual = 2.70345934447091e-06, No Iterations 5
GAMG:  Solving for p, Initial residual = 9.44128098745691e-05, Final residual = 7.21863818027533e-07, No Iterations 5
GAMG:  Solving for p, Initial residual = 2.91341941665492e-05, Final residual = 2.31557126399112e-07, No Iterations 5
time step continuity errors : sum local = 4.74553233096228e-06, global = -2.67508533832678e-07, cumulative = -4.32095450808271e-05
smoothSolver:  Solving for omega, Initial residual = 0.00257768810183665, Final residual = 0.000141327698512553, No Iterations 3
smoothSolver:  Solving for k, Initial residual = 0.0280099990644573, Final residual = 0.00237050936383546, No Iterations 2
ExecutionTime = 3.51 s  ClockTime = 3 s

Time = 20

smoothSolver:  Solving for Ux, Initial residual = 0.0442902045180175, Final residual = 0.00154257211314617, No Iterations 2
smoothSolver:  Solving for Uy, Initial residual = 0.0498807858020456, Final residual = 0.00209498478863815, No Iterations 2
smoothSolver:  Solving for Uz, Initial residual = 0.168328218279991, Final residual = 0.00471451476036443, No Iterations 2
GAMG:  Solving for p, Initial residual = 0.32906537073525, Final residual = 0.00224485705972019, No Iterations 4
GAMG:  Solving for p, Initial residual = 0.0180579744442307, Final residual = 0.00010521812234208, No Iterations 4
GAMG:  Solving for p, Initial residual = 0.00215027541676956, Final residual = 2.13913195614957e-05, No Iterations 4
GAMG:  Solving for p, Initial residual = 0.000445060521796211, Final residual = 3.7701431866259e-06, No Iterations 6
GAMG:  Solving for p, Initial residual = 0.00012953095040166, Final residual = 1.12625947475248e-06, No Iterations 5
GAMG:  Solving for p, Initial residual = 3.87936837211953e-05, Final residual = 3.30501746778358e-07, No Iterations 6
time step continuity errors : sum local = 2.73903707028311e-06, global = -3.74611422075205e-07, cumulative = -4.35841565029023e-05
smoothSolver:  Solving for omega, Initial residual = 0.00250268071415938, Final residual = 0.000136589954324669, No Iterations 3
smoothSolver:  Solving for k, Initial residual = 0.0246280475484805, Final residual = 0.00212985826634844, No Iterations 2
ExecutionTime = 3.69 s  ClockTime = 3 s

Time = 21

smoothSolver:  Solving for Ux, Initial residual = 0.0410871232851745, Final residual = 0.00150911799015647, No Iterations 2
smoothSolver:  Solving for Uy, Initial residual = 0.0441489042051595, Final residual = 0.00187832757435055, No Iterations 2
smoothSolver:  Solving for Uz, Initial residual = 0.171718315162523, Final residual = 0.00490991676446573, No Iterations 2
GAMG:  Solving for p, Initial residual = 0.288632787330129, Final residual = 0.00267988597450528, No Iterations 4
GAMG:  Solving for p, Initial residual = 0.0175953954656668, Final residual = 0.00010950489591078, No Iterations 4
GAMG:  Solving for p, Initial residual = 0.00211294327547237, Final residual = 1.64728204019479e-05, No Iterations 4
GAMG:  Solving for p, Initial residual = 0.000424971807300876, Final residual = 3.07235677353207e-06, No Iterations 5
GAMG:  Solving for p, Initial residual = 0.000122683066397127, Final residual = 1.04390637848171e-06, No Iterations 4
GAMG:  Solving for p, Initial residual = 3.74906507651797e-05, Final residual = 2.97416606278025e-07, No Iterations 5
time step continuity errors : sum local = 3.50735694337678e-06, global = 2.12967353548232e-07, cumulative = -4.33711891493541e-05
smoothSolver:  Solving for omega, Initial residual = 0.0024018335612891, Final residual = 0.000132240034808314, No Iterations 3
smoothSolver:  Solving for k, Initial residual = 0.0220708001472327, Final residual = 0.00193724164330606, No Iterations 2
ExecutionTime = 3.88 s  ClockTime = 4 s

Time = 22

smoothSolver:  Solving for Ux, Initial residual = 0.0266496599612497, Final residual = 0.00112873314793178, No Iterations 2
smoothSolver:  Solving for Uy, Initial residual = 0.0416271912160327, Final residual = 0.00174550606743119, No Iterations 2
smoothSolver:  Solving for Uz, Initial residual = 0.152257193571648, Final residual = 0.00449620329430255, No Iterations 2
GAMG:  Solving for p, Initial residual = 0.590870106529544, Final residual = 0.00286152316187022, No Iterations 5
GAMG:  Solving for p, Initial residual = 0.0135433545351938, Final residual = 0.000112010460293564, No Iterations 3
GAMG:  Solving for p, Initial residual = 0.00157519733429197, Final residual = 1.08926876036668e-05, No Iterations 5
GAMG:  Solving for p, Initial residual = 0.000323192013227496, Final residual = 3.02487646342773e-06, No Iterations 4
GAMG:  Solving for p, Initial residual = 8.95088137137839e-05, Final residual = 6.63706480717539e-07, No Iterations 5
GAMG:  Solving for p, Initial residual = 2.64670396082585e-05, Final residual = 2.33831859012504e-07, No Iterations 4
time step continuity errors : sum local = 3.07043175985414e-06, global = 1.29530819296113e-07, cumulative = -4.3241658330058e-05
smoothSolver:  Solving for omega, Initial residual = 0.00223185111577143, Final residual = 0.00012739160639747, No Iterations 3
smoothSolver:  Solving for k, Initial residual = 0.0201857187030862, Final residual = 0.0018015905709185, No Iterations 2
ExecutionTime = 4.05 s  ClockTime = 4 s

Time = 23

smoothSolver:  Solving for Ux, Initial residual = 0.0317009560969523, Final residual = 0.00101957118358676, No Iterations 2
smoothSolver:  Solving for Uy, Initial residual = 0.0411884308534943, Final residual = 0.00176619981189518, No Iterations 2
smoothSolver:  Solving for Uz, Initial residual = 0.136362648842514, Final residual = 0.00425556031508709, No Iterations 2
GAMG:  Solving for p, Initial residual = 0.301772643458827, Final residual = 0.00228097208596606, No Iterations 4
GAMG:  Solving for p, Initial residual = 0.0273256323013273, Final residual = 0.000167777646347827, No Iterations 4
GAMG:  Solving for p, Initial residual = 0.0031266583394218, Final residual = 2.53243849033399e-05, No Iterations 5
GAMG:  Solving for p, Initial residual = 0.000610211532626939, Final residual = 6.08574176173886e-06, No Iterations 5
GAMG:  Solving for p, Initial residual = 0.000178294579606342, Final residual = 1.7340960407621e-06, No Iterations 5
GAMG:  Solving for p, Initial residual = 5.38934566285747e-05, Final residual = 4.61842689693012e-07, No Iterations 6
time step continuity errors : sum local = 2.30810916579456e-06, global = 2.06205269662236e-07, cumulative = -4.30354530603957e-05
smoothSolver:  Solving for omega, Initial residual = 0.00209534555818845, Final residual = 0.000123941292546523, No Iterations 3
smoothSolver:  Solving for k, Initial residual = 0.0189945435148538, Final residual = 0.00173080428777003, No Iterations 2
ExecutionTime = 4.24 s  ClockTime = 4 s

Time = 24

smoothSolver:  Solving for Ux, Initial residual = 0.027320320180159, Final residual = 0.000901980345421067, No Iterations 2
smoothSolver:  Solving for Uy, Initial residual = 0.0403708133201438, Final residual = 0.00182038574145586, No Iterations 2
smoothSolver:  Solving for Uz, Initial residual = 0.133047509043787, Final residual = 0.0041168951275366, No Iterations 2
GAMG:  Solving for p, Initial residual = 0.308064481479402, Final residual = 0.00291345675911116, No Iterations 4
GAMG:  Solving for p, Initial residual = 0.0179300069946951, Final residual = 0.00010653917147209, No Iterations 4
GAMG:  Solving for p, Initial residual = 0.00226141837115024, Final residual = 2.11443548921685e-05, No Iterations 4
GAMG:  Solving for p, Initial residual = 0.000479697728215567, Final residual = 4.43803337450235e-06, No Iterations 5
GAMG:  Solving for p, Initial residual = 0.000144226076592252, Final residual = 1.15164342953669e-06, No Iterations 5
GAMG:  Solving for p, Initial residual = 4.43308875644424e-05, Final residual = 3.62863661974117e-07, No Iterations 5
time step continuity errors : sum local = 3.12231567442232e-06, global = -9.25897578120313e-08, cumulative = -4.31280428182078e-05
smoothSolver:  Solving for omega, Initial residual = 0.0020076778600956, Final residual = 0.000121963538062212, No Iterations 3
smoothSolver:  Solving for k, Initial residual = 0.0179089046532483, Final residual = 0.0017083165270469, No Iterations 2
ExecutionTime = 4.42 s  ClockTime = 4 s

Time = 25

smoothSolver:  Solving for Ux, Initial residual = 0.0234763373906815, Final residual = 0.000984925051294908, No Iterations 2
smoothSolver:  Solving for Uy, Initial residual = 0.0395164113082262, Final residual = 0.00180572214998777, No Iterations 2
smoothSolver:  Solving for Uz, Initial residual = 0.139826007988242, Final residual = 0.00397245627001241, No Iterations 2
GAMG:  Solving for p, Initial residual = 0.568042607825414, Final residual = 0.00193602886517693, No Iterations 5
GAMG:  Solving for p, Initial residual = 0.0143756628940285, Final residual = 0.000131396249935097, No Iterations 3
GAMG:  Solving for p, Initial residual = 0.00181330982131743, Final residual = 1.46812724431526e-05, No Iterations 5
GAMG:  Solving for p, Initial residual = 0.000384332898787445, Final residual = 3.12403870569343e-06, No Iterations 5
GAMG:  Solving for p, Initial residual = 0.000114070736662408, Final residual = 8.65022480371905e-07, No Iterations 5
GAMG:  Solving for p, Initial residual = 3.42256550603579e-05, Final residual = 2.80811341367978e-07, No Iterations 5
time step continuity errors : sum local = 2.40158699978675e-06, global = -7.09799999424842e-08, cumulative = -4.31990228181502e-05
smoothSolver:  Solving for omega, Initial residual = 0.00190858650908825, Final residual = 0.000117888427646611, No Iterations 3
smoothSolver:  Solving for k, Initial residual = 0.0170091319219554, Final residual = 0.00169944281522076, No Iterations 2
ExecutionTime = 4.61 s  ClockTime = 4 s

Time = 26

smoothSolver:  Solving for Ux, Initial residual = 0.0260606413251538, Final residual = 0.00111721360085264, No Iterations 2
smoothSolver:  Solving for Uy, Initial residual = 0.0365710033887678, Final residual = 0.00167150495723822, No Iterations 2
smoothSolver:  Solving for Uz, Initial residual = 0.150319428029245, Final residual = 0.00428372744744894, No Iterations 2
GAMG:  Solving for p, Initial residual = 0.342489845729113, Final residual = 0.00264554728616511, No Iterations 4
GAMG:  Solving for p, Initial residual = 0.0326327131500598, Final residual = 0.000225704631462098, No Iterations 4
GAMG:  Solving for p, Initial residual = 0.00394649100459608, Final residual = 3.07967552156983e-05, No Iterations 5
GAMG:  Solving for p, Initial residual = 0.000821984138113428, Final residual = 7.29279798124406e-06, No Iterations 5
GAMG:  Solving for p, Initial residual = 0.000241092666704691, Final residual = 2.22064737631781e-06, No Iterations 5
GAMG:  Solving for p, Initial residual = 7.39676890833688e-05, Final residual = 6.45950399805096e-07, No Iterations 6
time step continuity errors : sum local = 2.24706580486248e-06, global = -6.75687094877239e-08, cumulative = -4.3266591527638e-05
smoothSolver:  Solving for omega, Initial residual = 0.00183942586815249, Final residual = 0.000114299137359093, No Iterations 3
smoothSolver:  Solving for k, Initial residual = 0.0164249202344295, Final residual = 0.000626688718112704, No Iterations 3
ExecutionTime = 4.8 s  ClockTime = 5 s

Time = 27

smoothSolver:  Solving for Ux, Initial residual = 0.0218177955751541, Final residual = 0.00101320252634257, No Iterations 2
smoothSolver:  Solving for Uy, Initial residual = 0.0330271093244667, Final residual = 0.00150979149389616, No Iterations 2
smoothSolver:  Solving for Uz, Initial residual = 0.150016265945001, Final residual = 0.00483273810095555, No Iterations 2
GAMG:  Solving for p, Initial residual = 0.363515688761856, Final residual = 0.00317937208441437, No Iterations 4
GAMG:  Solving for p, Initial residual = 0.0196524222741299, Final residual = 0.000150971526893235, No Iterations 4
GAMG:  Solving for p, Initial residual = 0.00244455800374633, Final residual = 1.78093668547247e-05, No Iterations 5
GAMG:  Solving for p, Initial residual = 0.000487174538636737, Final residual = 3.98301680698646e-06, No Iterations 5
GAMG:  Solving for p, Initial residual = 0.000139606628585318, Final residual = 1.09808686657467e-06, No Iterations 5
GAMG:  Solving for p, Initial residual = 4.23603302705374e-05, Final residual = 3.49640708881308e-07, No Iterations 5
time step continuity errors : sum local = 2.19557945252052e-06, global = 7.13745388098337e-08, cumulative = -4.31952169888281e-05
smoothSolver:  Solving for omega, Initial residual = 0.00184629524232053, Final residual = 0.000116842102397899, No Iterations 3
smoothSolver:  Solving for k, Initial residual = 0.0159880319641443, Final residual = 0.000641200979352718, No Iterations 3
ExecutionTime = 4.99 s  ClockTime = 5 s

Time = 28

smoothSolver:  Solving for Ux, Initial residual = 0.0205695774193952, Final residual = 0.000880925559939813, No Iterations 2
smoothSolver:  Solving for Uy, Initial residual = 0.0309686309183614, Final residual = 0.00143549740103486, No Iterations 2
smoothSolver:  Solving for Uz, Initial residual = 0.132247423780897, Final residual = 0.00443474411211998, No Iterations 2
GAMG:  Solving for p, Initial residual = 0.525852159032739, Final residual = 0.00415040338098741, No Iterations 4
GAMG:  Solving for p, Initial residual = 0.0172677387175659, Final residual = 0.000147313566761646, No Iterations 4
GAMG:  Solving for p, Initial residual = 0.00225194522362825, Final residual = 1.86215695060708e-05, No Iterations 5
GAMG:  Solving for p, Initial residual = 0.000441258594635815, Final residual = 4.09002769831073e-06, No Iterations 5
GAMG:  Solving for p, Initial residual = 0.000131273703691223, Final residual = 1.09747842900232e-06, No Iterations 5
GAMG:  Solving for p, Initial residual = 4.04904637338534e-05, Final residual = 3.6676027843071e-07, No Iterations 5
time step continuity errors : sum local = 2.12663354277844e-06, global = 5.58027527507786e-08, cumulative = -4.31394142360774e-05
smoothSolver:  Solving for omega, Initial residual = 0.00171653937795629, Final residual = 0.000112192312461021, No Iterations 3
smoothSolver:  Solving for k, Initial residual = 0.0156295513928617, Final residual = 0.000658774229594742, No Iterations 3
ExecutionTime = 5.17 s  ClockTime = 5 s

Time = 29

smoothSolver:  Solving for Ux, Initial residual = 0.020290149933325, Final residual = 0.000803181360732694, No Iterations 2
smoothSolver:  Solving for Uy, Initial residual = 0.0307384823599176, Final residual = 0.00148119355227676, No Iterations 2
smoothSolver:  Solving for Uz, Initial residual = 0.116940921327068, Final residual = 0.00373668676006836, No Iterations 2
GAMG:  Solving for p, Initial residual = 0.372629066589106, Final residual = 0.00218253762958075, No Iterations 4
GAMG:  Solving for p, Initial residual = 0.0331423211920301, Final residual = 0.000254946094234595, No Iterations 4
GAMG:  Solving for p, Initial residual = 0.00442545070972207, Final residual = 3.60900573899158e-05, No Iterations 5
GAMG:  Solving for p, Initial residual = 0.000903207982355014, Final residual = 8.05203532286871e-06, No Iterations 5
GAMG:  Solving for p, Initial residual = 0.000266789758319943, Final residual = 2.14689868228221e-06, No Iterations 5
GAMG:  Solving for p, Initial residual = 8.22413351551993e-05, Final residual = 6.87804249045394e-07, No Iterations 5
time step continuity errors : sum local = 1.86419367766869e-06, global = 5.1034003816615e-08, cumulative = -4.30883802322607e-05
smoothSolver:  Solving for omega, Initial residual = 0.00155717478657175, Final residual = 0.000105681035257325, No Iterations 3
smoothSolver:  Solving for k, Initial residual = 0.0152897707598981, Final residual = 0.000670543407581482, No Iterations 3
ExecutionTime = 5.36 s  ClockTime = 5 s

Time = 30

smoothSolver:  Solving for Ux, Initial residual = 0.0177954823544511, Final residual = 0.000754476858590004, No Iterations 2
smoothSolver:  Solving for Uy, Initial residual = 0.030870207674127, Final residual = 0.00153572265727515, No Iterations 2
smoothSolver:  Solving for Uz, Initial residual = 0.108035441741577, Final residual = 0.00364805008215829, No Iterations 2
GAMG:  Solving for p, Initial residual = 0.405080533913556, Final residual = 0.00276665259998131, No Iterations 4
GAMG:  Solving for p, Initial residual = 0.0192432268115651, Final residual = 0.000149864443497004, No Iterations 4
GAMG:  Solving for p, Initial residual = 0.00249447806204442, Final residual = 2.22040545836495e-05, No Iterations 5
GAMG:  Solving for p, Initial residual = 0.00051869475337266, Final residual = 5.18671441844136e-06, No Iterations 5
GAMG:  Solving for p, Initial residual = 0.0001514034907548, Final residual = 1.40217593173913e-06, No Iterations 5
GAMG:  Solving for p, Initial residual = 4.62785726970819e-05, Final residual = 4.28743179722047e-07, No Iterations 5
time step continuity errors : sum local = 2.05762268039138e-06, global = -9.91260299824344e-08, cumulative = -4.31875062622432e-05
smoothSolver:  Solving for omega, Initial residual = 0.00147450746388331, Final residual = 0.000103126668011183, No Iterations 3
smoothSolver:  Solving for k, Initial residual = 0.0148645252543221, Final residual = 0.00067691568369372, No Iterations 3
ExecutionTime = 5.54 s  ClockTime = 5 s

Time = 31

smoothSolver:  Solving for Ux, Initial residual = 0.0175158232340661, Final residual = 0.000784180141048616, No Iterations 2
smoothSolver:  Solving for Uy, Initial residual = 0.0296950994972654, Final residual = 0.00153723978470559, No Iterations 2
smoothSolver:  Solving for Uz, Initial residual = 0.107037634631472, Final residual = 0.00374320385939526, No Iterations 2
GAMG:  Solving for p, Initial residual = 0.47988776517655, Final residual = 0.00276913528015768, No Iterations 4
GAMG:  Solving for p, Initial residual = 0.0191108926670501, Final residual = 0.000162140788385277, No Iterations 4
GAMG:  Solving for p, Initial residual = 0.00255723274498482, Final residual = 1.88751807901325e-05, No Iterations 6
GAMG:  Solving for p, Initial residual = 0.000525310658403225, Final residual = 5.07677310854378e-06, No Iterations 5
GAMG:  Solving for p, Initial residual = 0.000154290857059352, Final residual = 1.1886793833692e-06, No Iterations 6
GAMG:  Solving for p, Initial residual = 4.84700826092757e-05, Final residual = 4.20677818814218e-07, No Iterations 5
time step continuity errors : sum local = 1.77763144662221e-06, global = -6.60762779361551e-08, cumulative = -4.32535825401793e-05
smoothSolver:  Solving for omega, Initial residual = 0.00140650237498307, Final residual = 0.000100559089623716, No Iterations 3
smoothSolver:  Solving for k, Initial residual = 0.0143149110357417, Final residual = 0.000676217930412313, No Iterations 3
ExecutionTime = 5.73 s  ClockTime = 6 s

Time = 32

smoothSolver:  Solving for Ux, Initial residual = 0.0170045360537391, Final residual = 0.000828186351454728, No Iterations 2
smoothSolver:  Solving for Uy, Initial residual = 0.0277380551401821, Final residual = 0.00145432506128282, No Iterations 2
smoothSolver:  Solving for Uz, Initial residual = 0.112366666785706, Final residual = 0.00371754809111207, No Iterations 2
GAMG:  Solving for p, Initial residual = 0.389579718736611, Final residual = 0.0021750530903326, No Iterations 4
GAMG:  Solving for p, Initial residual = 0.0294735530528757, Final residual = 0.000242272383930233, No Iterations 4
GAMG:  Solving for p, Initial residual = 0.00400595449662935, Final residual = 3.84477200866776e-05, No Iterations 5
GAMG:  Solving for p, Initial residual = 0.000816251340588856, Final residual = 7.34778327059401e-06, No Iterations 6
GAMG:  Solving for p, Initial residual = 0.000243647899927605, Final residual = 2.37489381730744e-06, No Iterations 5
GAMG:  Solving for p, Initial residual = 7.41465667649631e-05, Final residual = 6.4963312505698e-07, No Iterations 6
time step continuity errors : sum local = 1.69163990943631e-06, global = -5.29281795879364e-08, cumulative = -4.33065107197673e-05
smoothSolver:  Solving for omega, Initial residual = 0.0013455675661134, Final residual = 9.79036182658248e-05, No Iterations 3
smoothSolver:  Solving for k, Initial residual = 0.0137182937259171, Final residual = 0.000673929441824154, No Iterations 3
ExecutionTime = 5.92 s  ClockTime = 6 s

Time = 33

smoothSolver:  Solving for Ux, Initial residual = 0.0159755583007535, Final residual = 0.000775181869374431, No Iterations 2
smoothSolver:  Solving for Uy, Initial residual = 0.0261670267433011, Final residual = 0.00136743275042106, No Iterations 2
smoothSolver:  Solving for Uz, Initial residual = 0.113163769158509, Final residual = 0.00373346040951687, No Iterations 2
GAMG:  Solving for p, Initial residual = 0.426124613811646, Final residual = 0.00270726101612781, No Iterations 4
GAMG:  Solving for p, Initial residual = 0.0200575231531056, Final residual = 0.000141049808903094, No Iterations 4
GAMG:  Solving for p, Initial residual = 0.00257232046536959, Final residual = 2.31564152861279e-05, No Iterations 5
GAMG:  Solving for p, Initial residual = 0.000555159363940025, Final residual = 4.14525714357043e-06, No Iterations 6
GAMG:  Solving for p, Initial residual = 0.000162331006066142, Final residual = 1.36234659110659e-06, No Iterations 5
GAMG:  Solving for p, Initial residual = 5.03006655263063e-05, Final residual = 5.02142748510011e-07, No Iterations 5
time step continuity errors : sum local = 1.91565487868906e-06, global = 1.33622850514946e-07, cumulative = -4.31728878692523e-05
smoothSolver:  Solving for omega, Initial residual = 0.00129822083022565, Final residual = 9.58588126332379e-05, No Iterations 3
smoothSolver:  Solving for k, Initial residual = 0.0130611387924044, Final residual = 0.00066890667654821, No Iterations 3
ExecutionTime = 6.11 s  ClockTime = 6 s

Time = 34

smoothSolver:  Solving for Ux, Initial residual = 0.0154432989563461, Final residual = 0.000698273497730743, No Iterations 2
smoothSolver:  Solving for Uy, Initial residual = 0.0255079597164138, Final residual = 0.00132350534707229, No Iterations 2
smoothSolver:  Solving for Uz, Initial residual = 0.105753644616334, Final residual = 0.00380261926110932, No Iterations 2
GAMG:  Solving for p, Initial residual = 0.464542427757805, Final residual = 0.00254665589159689, No Iterations 4
GAMG:  Solving for p, Initial residual = 0.0208747767501263, Final residual = 0.000159770541075365, No Iterations 4
GAMG:  Solving for p, Initial residual = 0.00278248094274524, Final residual = 2.58299340250485e-05, No Iterations 5
GAMG:  Solving for p, Initial residual = 0.00060631286888816, Final residual = 4.54249033793849e-06, No Iterations 6
GAMG:  Solving for p, Initial residual = 0.000181280259422519, Final residual = 1.42190502191899e-06, No Iterations 5
GAMG:  Solving for p, Initial residual = 5.70739040299405e-05, Final residual = 4.99298336519626e-07, No Iterations 5
time step continuity errors : sum local = 1.65255786284838e-06, global = 5.15817781318957e-08, cumulative = -4.31213060911204e-05
smoothSolver:  Solving for omega, Initial residual = 0.00124478903514685, Final residual = 9.33818881452355e-05, No Iterations 3
smoothSolver:  Solving for k, Initial residual = 0.012401152026435, Final residual = 0.000662842980598899, No Iterations 3
ExecutionTime = 6.3 s  ClockTime = 6 s

Time = 35

smoothSolver:  Solving for Ux, Initial residual = 0.0147192095344936, Final residual = 0.000671632923666525, No Iterations 2
smoothSolver:  Solving for Uy, Initial residual = 0.0251079712233443, Final residual = 0.00131615431449703, No Iterations 2
smoothSolver:  Solving for Uz, Initial residual = 0.0994033639521008, Final residual = 0.00378597054134112, No Iterations 2
GAMG:  Solving for p, Initial residual = 0.399650575860458, Final residual = 0.00224472954270553, No Iterations 4
GAMG:  Solving for p, Initial residual = 0.0272345743564407, Final residual = 0.000232180439824431, No Iterations 4
GAMG:  Solving for p, Initial residual = 0.00382012572881785, Final residual = 2.97764412356279e-05, No Iterations 6
GAMG:  Solving for p, Initial residual = 0.000833122574808245, Final residual = 7.88771039742574e-06, No Iterations 5
GAMG:  Solving for p, Initial residual = 0.000242688520334913, Final residual = 2.35192375127745e-06, No Iterations 5
GAMG:  Solving for p, Initial residual = 7.73392686187835e-05, Final residual = 7.68369719568418e-07, No Iterations 5
time step continuity errors : sum local = 1.82084841681527e-06, global = 5.52808945669674e-08, cumulative = -4.30660251965534e-05
smoothSolver:  Solving for omega, Initial residual = 0.00118592962968766, Final residual = 9.10536553254305e-05, No Iterations 3
smoothSolver:  Solving for k, Initial residual = 0.0117425185675794, Final residual = 0.0006516103421239, No Iterations 3
ExecutionTime = 6.48 s  ClockTime = 6 s

Time = 36

smoothSolver:  Solving for Ux, Initial residual = 0.0138838998415569, Final residual = 0.000667100552847424, No Iterations 2
smoothSolver:  Solving for Uy, Initial residual = 0.0245260123613667, Final residual = 0.00130902637366547, No Iterations 2
smoothSolver:  Solving for Uz, Initial residual = 0.099414101567948, Final residual = 0.00365397021139093, No Iterations 2
GAMG:  Solving for p, Initial residual = 0.433930521450238, Final residual = 0.0021810166243711, No Iterations 4
GAMG:  Solving for p, Initial residual = 0.0203742145537161, Final residual = 0.000165391602879181, No Iterations 4
GAMG:  Solving for p, Initial residual = 0.0026602901275893, Final residual = 2.28036600312438e-05, No Iterations 6
GAMG:  Solving for p, Initial residual = 0.000549408377153923, Final residual = 4.60672207829948e-06, No Iterations 6
GAMG:  Solving for p, Initial residual = 0.000158288034766373, Final residual = 1.57092177766813e-06, No Iterations 5
GAMG:  Solving for p, Initial residual = 4.93420909617951e-05, Final residual = 4.31349559409424e-07, No Iterations 6
time step continuity errors : sum local = 1.34989799828151e-06, global = -3.08192555804449e-08, cumulative = -4.30968444521339e-05
smoothSolver:  Solving for omega, Initial residual = 0.00113504159563843, Final residual = 8.92841220387846e-05, No Iterations 3
smoothSolver:  Solving for k, Initial residual = 0.0111399922189596, Final residual = 0.000640569062172766, No Iterations 3
ExecutionTime = 6.68 s  ClockTime = 6 s

Time = 37

smoothSolver:  Solving for Ux, Initial residual = 0.0135440024685845, Final residual = 0.000661402632264758, No Iterations 2
smoothSolver:  Solving for Uy, Initial residual = 0.0238585631498368, Final residual = 0.00130825656935745, No Iterations 2
smoothSolver:  Solving for Uz, Initial residual = 0.0964706168455994, Final residual = 0.00359126331255592, No Iterations 2
GAMG:  Solving for p, Initial residual = 0.44265434420689, Final residual = 0.00237106704173198, No Iterations 4
GAMG:  Solving for p, Initial residual = 0.0216715277784986, Final residual = 0.000179007535371491, No Iterations 4
GAMG:  Solving for p, Initial residual = 0.00289204162763934, Final residual = 2.34713867794105e-05, No Iterations 6
GAMG:  Solving for p, Initial residual = 0.000601139055799602, Final residual = 4.87936690246005e-06, No Iterations 6
GAMG:  Solving for p, Initial residual = 0.000169115334647664, Final residual = 1.36818192439389e-06, No Iterations 6
GAMG:  Solving for p, Initial residual = 5.24296675874945e-05, Final residual = 4.2371718603409e-07, No Iterations 6
time step continuity errors : sum local = 1.15888638613543e-06, global = -1.09202471485373e-07, cumulative = -4.32060469236193e-05
smoothSolver:  Solving for omega, Initial residual = 0.00109344779339406, Final residual = 8.82038976083258e-05, No Iterations 3
smoothSolver:  Solving for k, Initial residual = 0.0105940340315419, Final residual = 0.000630547783576684, No Iterations 3
ExecutionTime = 6.88 s  ClockTime = 7 s

Time = 38

smoothSolver:  Solving for Ux, Initial residual = 0.0131271677886774, Final residual = 0.000649868303198442, No Iterations 2
smoothSolver:  Solving for Uy, Initial residual = 0.0231795750207546, Final residual = 0.00130627384774445, No Iterations 2
smoothSolver:  Solving for Uz, Initial residual = 0.0906970235283598, Final residual = 0.0036493540845134, No Iterations 2
GAMG:  Solving for p, Initial residual = 0.396002616633911, Final residual = 0.00217246290835695, No Iterations 4
GAMG:  Solving for p, Initial residual = 0.0260574128039836, Final residual = 0.00021712126777168, No Iterations 4
GAMG:  Solving for p, Initial residual = 0.00363210610035052, Final residual = 2.60392813711492e-05, No Iterations 6
GAMG:  Solving for p, Initial residual = 0.000754693091622073, Final residual = 6.98750668477005e-06, No Iterations 5
GAMG:  Solving for p, Initial residual = 0.000215456315062347, Final residual = 1.66295816277319e-06, No Iterations 6
GAMG:  Solving for p, Initial residual = 6.7789403135042e-05, Final residual = 6.36439298452219e-07, No Iterations 5
time step continuity errors : sum local = 1.3813513822853e-06, global = -5.69246137475186e-08, cumulative = -4.32629715373668e-05
smoothSolver:  Solving for omega, Initial residual = 0.00106360843060443, Final residual = 8.74572480538897e-05, No Iterations 3
smoothSolver:  Solving for k, Initial residual = 0.0100918960256856, Final residual = 0.000620542727184619, No Iterations 3
ExecutionTime = 7.07 s  ClockTime = 7 s

Time = 39

smoothSolver:  Solving for Ux, Initial residual = 0.0125058106792739, Final residual = 0.000631359877034426, No Iterations 2
smoothSolver:  Solving for Uy, Initial residual = 0.0226715023803712, Final residual = 0.00129986894484833, No Iterations 2
smoothSolver:  Solving for Uz, Initial residual = 0.0890615043679555, Final residual = 0.00369121102305568, No Iterations 2
GAMG:  Solving for p, Initial residual = 0.428552785386754, Final residual = 0.00207819521351561, No Iterations 4
GAMG:  Solving for p, Initial residual = 0.0195332339578011, Final residual = 0.000154828472754548, No Iterations 4
GAMG:  Solving for p, Initial residual = 0.00255155479727465, Final residual = 1.88770827681602e-05, No Iterations 6
GAMG:  Solving for p, Initial residual = 0.000511465338125435, Final residual = 5.0408507612019e-06, No Iterations 5
GAMG:  Solving for p, Initial residual = 0.000143869662287459, Final residual = 1.1536424705183e-06, No Iterations 6
GAMG:  Solving for p, Initial residual = 4.57354613095514e-05, Final residual = 4.14978183440852e-07, No Iterations 5
time step continuity errors : sum local = 1.16733475931974e-06, global = 1.95947657724992e-08, cumulative = -4.32433767715943e-05
smoothSolver:  Solving for omega, Initial residual = 0.00103472011887099, Final residual = 8.67731223904231e-05, No Iterations 3
smoothSolver:  Solving for k, Initial residual = 0.00965273063926234, Final residual = 0.000610570431722524, No Iterations 3
ExecutionTime = 7.26 s  ClockTime = 7 s

Time = 40

smoothSolver:  Solving for Ux, Initial residual = 0.0120027371694978, Final residual = 0.000596520466927422, No Iterations 2
smoothSolver:  Solving for Uy, Initial residual = 0.0224696696092695, Final residual = 0.00129655963246466, No Iterations 2
smoothSolver:  Solving for Uz, Initial residual = 0.0867851060039556, Final residual = 0.00357479135347379, No Iterations 2
GAMG:  Solving for p, Initial residual = 0.411561295910709, Final residual = 0.00185497311283937, No Iterations 4
GAMG:  Solving for p, Initial residual = 0.0189219184291979, Final residual = 0.000159237907808583, No Iterations 4
GAMG:  Solving for p, Initial residual = 0.00244730737858364, Final residual = 1.96416571714302e-05, No Iterations 6
GAMG:  Solving for p, Initial residual = 0.000474588785960008, Final residual = 3.75516881830459e-06, No Iterations 6
GAMG:  Solving for p, Initial residual = 0.00013198906310354, Final residual = 1.29753318326353e-06, No Iterations 5
GAMG:  Solving for p, Initial residual = 4.21854154005021e-05, Final residual = 3.53184206912139e-07, No Iterations 6
time step continuity errors : sum local = 9.27844939809176e-07, global = 1.86768168124677e-08, cumulative = -4.32246999547818e-05
smoothSolver:  Solving for omega, Initial residual = 0.00100245228047319, Final residual = 8.58871705657879e-05, No Iterations 3
smoothSolver:  Solving for k, Initial residual = 0.00923903958212754, Final residual = 0.000601719277450128, No Iterations 3
ExecutionTime = 7.46 s  ClockTime = 7 s

Time = 41

smoothSolver:  Solving for Ux, Initial residual = 0.0113737486362114, Final residual = 0.000562313274419539, No Iterations 2
smoothSolver:  Solving for Uy, Initial residual = 0.022388097472739, Final residual = 0.00129810744591317, No Iterations 2
smoothSolver:  Solving for Uz, Initial residual = 0.0821425306598181, Final residual = 0.00354578811062594, No Iterations 2
GAMG:  Solving for p, Initial residual = 0.357595282231409, Final residual = 0.00202568196992486, No Iterations 4
GAMG:  Solving for p, Initial residual = 0.0269623754198139, Final residual = 0.00024078763002246, No Iterations 4
GAMG:  Solving for p, Initial residual = 0.00370767210301768, Final residual = 3.06866498805907e-05, No Iterations 6
GAMG:  Solving for p, Initial residual = 0.000735537571899152, Final residual = 6.20709155194331e-06, No Iterations 6
GAMG:  Solving for p, Initial residual = 0.000210762343913149, Final residual = 1.69839379624339e-06, No Iterations 6
GAMG:  Solving for p, Initial residual = 6.63507279570938e-05, Final residual = 5.26448361205623e-07, No Iterations 6
time step continuity errors : sum local = 9.70358689096681e-07, global = 7.4625483676385e-08, cumulative = -4.31500744711054e-05
smoothSolver:  Solving for omega, Initial residual = 0.000969256195241863, Final residual = 8.47287645074568e-05, No Iterations 3
smoothSolver:  Solving for k, Initial residual = 0.00884108101299927, Final residual = 0.000593578650487885, No Iterations 3
ExecutionTime = 7.65 s  ClockTime = 7 s

Time = 42

smoothSolver:  Solving for Ux, Initial residual = 0.0108926792656227, Final residual = 0.00055059092703753, No Iterations 2
smoothSolver:  Solving for Uy, Initial residual = 0.0219487023231625, Final residual = 0.00127921472720234, No Iterations 2
smoothSolver:  Solving for Uz, Initial residual = 0.0798559871030161, Final residual = 0.0036521887339736, No Iterations 2
GAMG:  Solving for p, Initial residual = 0.365187416584124, Final residual = 0.00192509999945815, No Iterations 4
GAMG:  Solving for p, Initial residual = 0.0226113257426766, Final residual = 0.000211408616953225, No Iterations 4
GAMG:  Solving for p, Initial residual = 0.00293115647053835, Final residual = 2.85791313196775e-05, No Iterations 6
GAMG:  Solving for p, Initial residual = 0.000602011862982305, Final residual = 5.86476622741929e-06, No Iterations 6
GAMG:  Solving for p, Initial residual = 0.000170261385800132, Final residual = 1.50068555215672e-06, No Iterations 6
GAMG:  Solving for p, Initial residual = 5.42647652317473e-05, Final residual = 4.27792072999581e-07, No Iterations 6
time step continuity errors : sum local = 9.15829777752652e-07, global = -3.30030669661072e-08, cumulative = -4.31830775380715e-05
smoothSolver:  Solving for omega, Initial residual = 0.000940649281521377, Final residual = 8.35385088361815e-05, No Iterations 3
smoothSolver:  Solving for k, Initial residual = 0.00850490790056536, Final residual = 0.000585192182079832, No Iterations 3
ExecutionTime = 7.86 s  ClockTime = 8 s

Time = 43

smoothSolver:  Solving for Ux, Initial residual = 0.010671470329725, Final residual = 0.000560471909750586, No Iterations 2
smoothSolver:  Solving for Uy, Initial residual = 0.0212076920565233, Final residual = 0.00125322312816839, No Iterations 2
smoothSolver:  Solving for Uz, Initial residual = 0.083372848636326, Final residual = 0.00377087644303611, No Iterations 2
GAMG:  Solving for p, Initial residual = 0.418700512311577, Final residual = 0.00221609059414194, No Iterations 4
GAMG:  Solving for p, Initial residual = 0.0200718073169394, Final residual = 0.00013955576935432, No Iterations 5
GAMG:  Solving for p, Initial residual = 0.00253478254392579, Final residual = 2.16383520707746e-05, No Iterations 6
GAMG:  Solving for p, Initial residual = 0.000518223325869731, Final residual = 4.74675360154317e-06, No Iterations 6
GAMG:  Solving for p, Initial residual = 0.000150925311056734, Final residual = 1.25402847818698e-06, No Iterations 6
GAMG:  Solving for p, Initial residual = 4.79528607657832e-05, Final residual = 3.7594963896383e-07, No Iterations 6
time step continuity errors : sum local = 8.28592305964972e-07, global = -1.55221780829128e-08, cumulative = -4.31985997161544e-05
smoothSolver:  Solving for omega, Initial residual = 0.000914023928551658, Final residual = 8.21761838119485e-05, No Iterations 3
smoothSolver:  Solving for k, Initial residual = 0.00817405477067018, Final residual = 0.000575914120717866, No Iterations 3
ExecutionTime = 8.06 s  ClockTime = 8 s

Time = 44

smoothSolver:  Solving for Ux, Initial residual = 0.0103139745968177, Final residual = 0.000561592319397927, No Iterations 2
smoothSolver:  Solving for Uy, Initial residual = 0.0206272969610542, Final residual = 0.00124125866865883, No Iterations 2
smoothSolver:  Solving for Uz, Initial residual = 0.0835093326716656, Final residual = 0.00371024597948115, No Iterations 2
GAMG:  Solving for p, Initial residual = 0.383263324350888, Final residual = 0.00216125490939819, No Iterations 4
GAMG:  Solving for p, Initial residual = 0.0244168485461806, Final residual = 0.000176389213404546, No Iterations 5
GAMG:  Solving for p, Initial residual = 0.00300711184313119, Final residual = 2.66672617792052e-05, No Iterations 6
GAMG:  Solving for p, Initial residual = 0.000595508452354102, Final residual = 5.8910315824987e-06, No Iterations 6
GAMG:  Solving for p, Initial residual = 0.000173045297847483, Final residual = 1.54331827718445e-06, No Iterations 6
GAMG:  Solving for p, Initial residual = 5.46477667027146e-05, Final residual = 4.87793828269129e-07, No Iterations 6
time step continuity errors : sum local = 8.46347563474568e-07, global = -1.51786763917057e-08, cumulative = -4.32137783925462e-05
smoothSolver:  Solving for omega, Initial residual = 0.000885180032605976, Final residual = 8.07979267875245e-05, No Iterations 3
smoothSolver:  Solving for k, Initial residual = 0.00784408892064311, Final residual = 0.000568229630376348, No Iterations 3
ExecutionTime = 8.26 s  ClockTime = 8 s

Time = 45

smoothSolver:  Solving for Ux, Initial residual = 0.00983677847538987, Final residual = 0.00054560031295013, No Iterations 2
smoothSolver:  Solving for Uy, Initial residual = 0.0205675664360168, Final residual = 0.00125346997225139, No Iterations 2
smoothSolver:  Solving for Uz, Initial residual = 0.0763010867203306, Final residual = 0.00349829119944475, No Iterations 2
GAMG:  Solving for p, Initial residual = 0.36298379692712, Final residual = 0.0019163920707044, No Iterations 4
GAMG:  Solving for p, Initial residual = 0.0214365615680901, Final residual = 0.000205550467884832, No Iterations 4
GAMG:  Solving for p, Initial residual = 0.00269115753565544, Final residual = 2.65831160202341e-05, No Iterations 6
GAMG:  Solving for p, Initial residual = 0.00055626520911702, Final residual = 4.31899918056216e-06, No Iterations 7
GAMG:  Solving for p, Initial residual = 0.000160644172027931, Final residual = 1.27108886172961e-06, No Iterations 6
GAMG:  Solving for p, Initial residual = 5.20925275710725e-05, Final residual = 4.16957259681766e-07, No Iterations 6
time step continuity errors : sum local = 7.8851157265875e-07, global = 2.41482757929633e-08, cumulative = -4.31896301167532e-05
smoothSolver:  Solving for omega, Initial residual = 0.000857709370839609, Final residual = 7.93930919688866e-05, No Iterations 3
smoothSolver:  Solving for k, Initial residual = 0.00754155356584278, Final residual = 0.000563302956632216, No Iterations 3
ExecutionTime = 8.47 s  ClockTime = 8 s

Time = 46

smoothSolver:  Solving for Ux, Initial residual = 0.0093808034120958, Final residual = 0.000520878294684958, No Iterations 2
smoothSolver:  Solving for Uy, Initial residual = 0.0205848370692121, Final residual = 0.00126117863429086, No Iterations 2
smoothSolver:  Solving for Uz, Initial residual = 0.0676360077422819, Final residual = 0.00334199676944892, No Iterations 2
GAMG:  Solving for p, Initial residual = 0.392147410560303, Final residual = 0.00208007980507932, No Iterations 4
GAMG:  Solving for p, Initial residual = 0.0172755495052627, Final residual = 0.00016834731331188, No Iterations 4
GAMG:  Solving for p, Initial residual = 0.00218766328626107, Final residual = 1.62728101286646e-05, No Iterations 7
GAMG:  Solving for p, Initial residual = 0.000465485827284924, Final residual = 3.80517708358114e-06, No Iterations 6
GAMG:  Solving for p, Initial residual = 0.000135260772772735, Final residual = 1.16020448096202e-06, No Iterations 6
GAMG:  Solving for p, Initial residual = 4.4663713868875e-05, Final residual = 3.95290621483954e-07, No Iterations 6
time step continuity errors : sum local = 8.56653070321517e-07, global = 3.23046697878519e-08, cumulative = -4.31573254469653e-05
smoothSolver:  Solving for omega, Initial residual = 0.000829581958398008, Final residual = 7.78959902800414e-05, No Iterations 3
smoothSolver:  Solving for k, Initial residual = 0.00725731442579744, Final residual = 0.000561527408797817, No Iterations 3
ExecutionTime = 8.67 s  ClockTime = 8 s

Time = 47

smoothSolver:  Solving for Ux, Initial residual = 0.0090458181143272, Final residual = 0.000500735408860478, No Iterations 2
smoothSolver:  Solving for Uy, Initial residual = 0.0203220555853556, Final residual = 0.00126111265341759, No Iterations 2
smoothSolver:  Solving for Uz, Initial residual = 0.0659880093905205, Final residual = 0.00331554084008622, No Iterations 2
GAMG:  Solving for p, Initial residual = 0.327706775896878, Final residual = 0.00168970160479556, No Iterations 4
GAMG:  Solving for p, Initial residual = 0.016467785028653, Final residual = 0.000125732912428701, No Iterations 5
GAMG:  Solving for p, Initial residual = 0.00203954135005522, Final residual = 1.87808797001356e-05, No Iterations 6
GAMG:  Solving for p, Initial residual = 0.000419242218010514, Final residual = 3.93476427574437e-06, No Iterations 6
GAMG:  Solving for p, Initial residual = 0.000121894060443619, Final residual = 1.1305778898542e-06, No Iterations 6
GAMG:  Solving for p, Initial residual = 3.97558349595973e-05, Final residual = 3.56797671008796e-07, No Iterations 6
time step continuity errors : sum local = 7.30359550474824e-07, global = 1.64265419613464e-08, cumulative = -4.3140898905004e-05
smoothSolver:  Solving for omega, Initial residual = 0.000803212809061625, Final residual = 7.65900760348294e-05, No Iterations 3
smoothSolver:  Solving for k, Initial residual = 0.00701630589333578, Final residual = 0.000563772663344057, No Iterations 3
ExecutionTime = 8.89 s  ClockTime = 9 s

Time = 48

smoothSolver:  Solving for Ux, Initial residual = 0.00863132202114227, Final residual = 0.000489520091572071, No Iterations 2
smoothSolver:  Solving for Uy, Initial residual = 0.0201067990527984, Final residual = 0.0012532159708169, No Iterations 2
smoothSolver:  Solving for Uz, Initial residual = 0.0653809244882155, Final residual = 0.00334007094284329, No Iterations 2
GAMG:  Solving for p, Initial residual = 0.29115985689035, Final residual = 0.00178845701187084, No Iterations 4
GAMG:  Solving for p, Initial residual = 0.0194815174378732, Final residual = 0.000185776239992938, No Iterations 5
GAMG:  Solving for p, Initial residual = 0.00241725198970674, Final residual = 1.95340956450318e-05, No Iterations 7
GAMG:  Solving for p, Initial residual = 0.000480279802200976, Final residual = 4.55346795171159e-06, No Iterations 6
GAMG:  Solving for p, Initial residual = 0.000132396469093251, Final residual = 1.27291118113783e-06, No Iterations 6
GAMG:  Solving for p, Initial residual = 4.14879803123943e-05, Final residual = 3.93856424070889e-07, No Iterations 6
time step continuity errors : sum local = 6.52601657501981e-07, global = -7.14717423077758e-09, cumulative = -4.31480460792348e-05
smoothSolver:  Solving for omega, Initial residual = 0.000778755498051263, Final residual = 7.53603634037656e-05, No Iterations 3
smoothSolver:  Solving for k, Initial residual = 0.00680889253682246, Final residual = 0.000568470217225154, No Iterations 3
ExecutionTime = 9.11 s  ClockTime = 9 s

Time = 49

smoothSolver:  Solving for Ux, Initial residual = 0.00820471481072036, Final residual = 0.000484128551567267, No Iterations 2
smoothSolver:  Solving for Uy, Initial residual = 0.0199160889728115, Final residual = 0.00123153805165391, No Iterations 2
smoothSolver:  Solving for Uz, Initial residual = 0.0626296924533585, Final residual = 0.0033160342858976, No Iterations 2
GAMG:  Solving for p, Initial residual = 0.27964106825139, Final residual = 0.00169784779307768, No Iterations 4
GAMG:  Solving for p, Initial residual = 0.0242958918745434, Final residual = 0.000198148032940029, No Iterations 5
GAMG:  Solving for p, Initial residual = 0.00299409540367752, Final residual = 2.94159825321487e-05, No Iterations 6
GAMG:  Solving for p, Initial residual = 0.000603142595807928, Final residual = 4.92441334753435e-06, No Iterations 7
GAMG:  Solving for p, Initial residual = 0.000171943783716409, Final residual = 1.44139731452856e-06, No Iterations 6
GAMG:  Solving for p, Initial residual = 5.36290575431406e-05, Final residual = 5.0217096719961e-07, No Iterations 6
time step continuity errors : sum local = 6.69920630881486e-07, global = -2.61664378551048e-08, cumulative = -4.31742125170899e-05
smoothSolver:  Solving for omega, Initial residual = 0.00075487046143061, Final residual = 7.3844943682994e-05, No Iterations 3
smoothSolver:  Solving for k, Initial residual = 0.00664482371461404, Final residual = 0.000574497052751105, No Iterations 3
ExecutionTime = 9.33 s  ClockTime = 9 s

Time = 50

smoothSolver:  Solving for Ux, Initial residual = 0.00800628609365183, Final residual = 0.00048259350760976, No Iterations 2
smoothSolver:  Solving for Uy, Initial residual = 0.0195156935157452, Final residual = 0.00121980139082939, No Iterations 2
smoothSolver:  Solving for Uz, Initial residual = 0.0588812817706901, Final residual = 0.00319612551170966, No Iterations 2
GAMG:  Solving for p, Initial residual = 0.294286713749379, Final residual = 0.00169995579331408, No Iterations 4
GAMG:  Solving for p, Initial residual = 0.0208473834160448, Final residual = 0.000157472173547834, No Iterations 5
GAMG:  Solving for p, Initial residual = 0.00256882103626611, Final residual = 2.37772625971724e-05, No Iterations 6
GAMG:  Solving for p, Initial residual = 0.000541637325336236, Final residual = 5.2783773977995e-06, No Iterations 6
GAMG:  Solving for p, Initial residual = 0.000157985774673601, Final residual = 1.47051704447056e-06, No Iterations 6
GAMG:  Solving for p, Initial residual = 5.05203583036161e-05, Final residual = 4.85442121455565e-07, No Iterations 6
time step continuity errors : sum local = 7.00959634981472e-07, global = -3.65306412098067e-08, cumulative = -4.32107431582997e-05
smoothSolver:  Solving for omega, Initial residual = 0.000731221764639469, Final residual = 7.20809967915004e-05, No Iterations 3
smoothSolver:  Solving for k, Initial residual = 0.0065106894008384, Final residual = 0.000580102122125155, No Iterations 3
ExecutionTime = 9.53 s  ClockTime = 9 s

Time = 51

smoothSolver:  Solving for Ux, Initial residual = 0.00785338564118283, Final residual = 0.00048072548821617, No Iterations 2
smoothSolver:  Solving for Uy, Initial residual = 0.0190357961894893, Final residual = 0.00121784268771582, No Iterations 2
smoothSolver:  Solving for Uz, Initial residual = 0.0580328962814747, Final residual = 0.00303320240402553, No Iterations 2
GAMG:  Solving for p, Initial residual = 0.315886439126879, Final residual = 0.00163076254448181, No Iterations 4
GAMG:  Solving for p, Initial residual = 0.0199847552010342, Final residual = 0.000154067191989516, No Iterations 5
GAMG:  Solving for p, Initial residual = 0.00238147371703547, Final residual = 1.79150436903619e-05, No Iterations 7
GAMG:  Solving for p, Initial residual = 0.000505468756238316, Final residual = 4.37149135330707e-06, No Iterations 6
GAMG:  Solving for p, Initial residual = 0.000145255034090342, Final residual = 1.26783391720837e-06, No Iterations 6
GAMG:  Solving for p, Initial residual = 4.59394735715339e-05, Final residual = 3.87706422519017e-07, No Iterations 6
time step continuity errors : sum local = 5.20221718487745e-07, global = -2.6095548480971e-08, cumulative = -4.32368387067806e-05
smoothSolver:  Solving for omega, Initial residual = 0.000707373179444511, Final residual = 7.02736034702289e-05, No Iterations 3
smoothSolver:  Solving for k, Initial residual = 0.00639720209615869, Final residual = 0.000582959519412904, No Iterations 3
ExecutionTime = 9.74 s  ClockTime = 10 s

Time = 52

smoothSolver:  Solving for Ux, Initial residual = 0.00750260472744053, Final residual = 0.000474866187370292, No Iterations 2
smoothSolver:  Solving for Uy, Initial residual = 0.0188237127732969, Final residual = 0.00121874863067984, No Iterations 2
smoothSolver:  Solving for Uz, Initial residual = 0.0559465879739461, Final residual = 0.00287453172637429, No Iterations 2
GAMG:  Solving for p, Initial residual = 0.321032949978096, Final residual = 0.00184432913350555, No Iterations 4
GAMG:  Solving for p, Initial residual = 0.0194547754945895, Final residual = 0.000179210534830387, No Iterations 5
GAMG:  Solving for p, Initial residual = 0.00232707420032141, Final residual = 1.93241418950715e-05, No Iterations 7
[...]
ExecutionTime = 458.56 s  ClockTime = 459 s

Time = 1988

smoothSolver:  Solving for Ux, Initial residual = 0.00119942380446395, Final residual = 8.32978759551614e-05, No Iterations 2
smoothSolver:  Solving for Uy, Initial residual = 0.00238728158552516, Final residual = 0.000170838742665957, No Iterations 2
smoothSolver:  Solving for Uz, Initial residual = 0.00412413331996159, Final residual = 0.000291668365224221, No Iterations 2
GAMG:  Solving for p, Initial residual = 0.0397112634832072, Final residual = 0.000276872118195779, No Iterations 6
GAMG:  Solving for p, Initial residual = 0.00287810942123772, Final residual = 2.65035237543121e-05, No Iterations 7
GAMG:  Solving for p, Initial residual = 0.000409130091545344, Final residual = 3.65343622776091e-06, No Iterations 7
GAMG:  Solving for p, Initial residual = 0.000102518255848734, Final residual = 7.91139818505904e-07, No Iterations 7
GAMG:  Solving for p, Initial residual = 3.1499208859645e-05, Final residual = 2.66650629230918e-07, No Iterations 6
GAMG:  Solving for p, Initial residual = 1.09641713007638e-05, Final residual = 1.05533735500925e-07, No Iterations 6
time step continuity errors : sum local = 1.10498405541298e-07, global = 1.74885321000261e-09, cumulative = -4.31308908411817e-05
smoothSolver:  Solving for omega, Initial residual = 0.000116757687325775, Final residual = 1.05272067124131e-05, No Iterations 3
smoothSolver:  Solving for k, Initial residual = 0.00146949089101451, Final residual = 0.000137658519166017, No Iterations 3
ExecutionTime = 458.78 s  ClockTime = 459 s

Time = 1989

smoothSolver:  Solving for Ux, Initial residual = 0.00120324674021983, Final residual = 8.36570275112591e-05, No Iterations 2
smoothSolver:  Solving for Uy, Initial residual = 0.00241150531969332, Final residual = 0.000173143657184339, No Iterations 2
smoothSolver:  Solving for Uz, Initial residual = 0.00410803930131238, Final residual = 0.000290476388681104, No Iterations 2
GAMG:  Solving for p, Initial residual = 0.0398680725274656, Final residual = 0.000390574059516307, No Iterations 5
GAMG:  Solving for p, Initial residual = 0.00296750359621496, Final residual = 2.610395405452e-05, No Iterations 8
GAMG:  Solving for p, Initial residual = 0.000414026817561911, Final residual = 3.78583363765762e-06, No Iterations 7
GAMG:  Solving for p, Initial residual = 0.000100324599172046, Final residual = 8.28668296157705e-07, No Iterations 7
GAMG:  Solving for p, Initial residual = 3.03350993214279e-05, Final residual = 2.79061246060328e-07, No Iterations 6
GAMG:  Solving for p, Initial residual = 1.0436710018045e-05, Final residual = 7.90900823824189e-08, No Iterations 7
time step continuity errors : sum local = 8.37236353393455e-08, global = 1.32948971276794e-09, cumulative = -4.31295613514689e-05
smoothSolver:  Solving for omega, Initial residual = 0.00011459125083268, Final residual = 1.04321324062129e-05, No Iterations 3
smoothSolver:  Solving for k, Initial residual = 0.00144832513888636, Final residual = 0.000137815007135665, No Iterations 3
ExecutionTime = 459.01 s  ClockTime = 459 s

Time = 1990

smoothSolver:  Solving for Ux, Initial residual = 0.00120065014326163, Final residual = 8.41613900220467e-05, No Iterations 2
smoothSolver:  Solving for Uy, Initial residual = 0.0024260276278308, Final residual = 0.00017450145988213, No Iterations 2
smoothSolver:  Solving for Uz, Initial residual = 0.00409007711558577, Final residual = 0.00028833296277156, No Iterations 2
GAMG:  Solving for p, Initial residual = 0.0391715668461294, Final residual = 0.000267703538338107, No Iterations 6
GAMG:  Solving for p, Initial residual = 0.00286152707457906, Final residual = 2.84203608872928e-05, No Iterations 7
GAMG:  Solving for p, Initial residual = 0.000389791718664299, Final residual = 3.18325655925466e-06, No Iterations 8
GAMG:  Solving for p, Initial residual = 9.6771779942343e-05, Final residual = 7.56576755628722e-07, No Iterations 7
GAMG:  Solving for p, Initial residual = 2.9255991339572e-05, Final residual = 2.69785562594784e-07, No Iterations 6
GAMG:  Solving for p, Initial residual = 1.02206202364325e-05, Final residual = 9.76540315940151e-08, No Iterations 6
time step continuity errors : sum local = 1.0428731319323e-07, global = 1.69502784609962e-09, cumulative = -4.31278663236228e-05
smoothSolver:  Solving for omega, Initial residual = 0.000112725952445374, Final residual = 1.03065002399382e-05, No Iterations 3
smoothSolver:  Solving for k, Initial residual = 0.00142268278919857, Final residual = 0.000137401409782349, No Iterations 3
ExecutionTime = 459.24 s  ClockTime = 459 s

Time = 1991

smoothSolver:  Solving for Ux, Initial residual = 0.00119790144851703, Final residual = 8.46777625512798e-05, No Iterations 2
smoothSolver:  Solving for Uy, Initial residual = 0.00243422743188037, Final residual = 0.000174819266747013, No Iterations 2
smoothSolver:  Solving for Uz, Initial residual = 0.00406778318251896, Final residual = 0.000288730443278286, No Iterations 2
GAMG:  Solving for p, Initial residual = 0.0379785033266445, Final residual = 0.000292327440015384, No Iterations 6
GAMG:  Solving for p, Initial residual = 0.00284908930343177, Final residual = 2.40166928071072e-05, No Iterations 8
GAMG:  Solving for p, Initial residual = 0.000402165038717513, Final residual = 3.0676283090972e-06, No Iterations 8
GAMG:  Solving for p, Initial residual = 9.95718316741201e-05, Final residual = 7.70503485566204e-07, No Iterations 7
GAMG:  Solving for p, Initial residual = 3.04199556173506e-05, Final residual = 2.69902502985821e-07, No Iterations 6
GAMG:  Solving for p, Initial residual = 1.06222397598436e-05, Final residual = 9.87698435302879e-08, No Iterations 6
time step continuity errors : sum local = 1.05998041343943e-07, global = 1.46955469121379e-09, cumulative = -4.31263967689316e-05
smoothSolver:  Solving for omega, Initial residual = 0.000111363169286823, Final residual = 1.03035097262926e-05, No Iterations 3
smoothSolver:  Solving for k, Initial residual = 0.00139788793637488, Final residual = 0.000137209829528551, No Iterations 3
ExecutionTime = 459.47 s  ClockTime = 459 s

Time = 1992

smoothSolver:  Solving for Ux, Initial residual = 0.00119668734755466, Final residual = 8.5053623359141e-05, No Iterations 2
smoothSolver:  Solving for Uy, Initial residual = 0.00244444643054444, Final residual = 0.00017546788225251, No Iterations 2
smoothSolver:  Solving for Uz, Initial residual = 0.00407427131540273, Final residual = 0.000291147547282034, No Iterations 2
GAMG:  Solving for p, Initial residual = 0.0371010697709038, Final residual = 0.000304484654105701, No Iterations 6
GAMG:  Solving for p, Initial residual = 0.00281028609654619, Final residual = 2.53791978683045e-05, No Iterations 8
GAMG:  Solving for p, Initial residual = 0.000409790578600991, Final residual = 3.26484080504441e-06, No Iterations 8
GAMG:  Solving for p, Initial residual = 0.000103658611233365, Final residual = 8.20004912289827e-07, No Iterations 7
GAMG:  Solving for p, Initial residual = 3.18221222799167e-05, Final residual = 2.93306719333715e-07, No Iterations 6
GAMG:  Solving for p, Initial residual = 1.11522743088286e-05, Final residual = 1.08022006272933e-07, No Iterations 6
time step continuity errors : sum local = 1.16074693141429e-07, global = 1.57931473274465e-09, cumulative = -4.31248174541989e-05
smoothSolver:  Solving for omega, Initial residual = 0.000111771490180137, Final residual = 1.05151424084075e-05, No Iterations 3
smoothSolver:  Solving for k, Initial residual = 0.00139927707130739, Final residual = 0.000137736354084444, No Iterations 3
ExecutionTime = 459.72 s  ClockTime = 460 s

Time = 1993

smoothSolver:  Solving for Ux, Initial residual = 0.00119583547760526, Final residual = 8.46483256028177e-05, No Iterations 2
smoothSolver:  Solving for Uy, Initial residual = 0.00244223091570192, Final residual = 0.000175224878959735, No Iterations 2
smoothSolver:  Solving for Uz, Initial residual = 0.00409128071967862, Final residual = 0.000293472821971736, No Iterations 2
GAMG:  Solving for p, Initial residual = 0.0370053627264072, Final residual = 0.000298382926446674, No Iterations 6
GAMG:  Solving for p, Initial residual = 0.002824160543174, Final residual = 2.3120702966411e-05, No Iterations 8
GAMG:  Solving for p, Initial residual = 0.000423446254912507, Final residual = 3.56900410277807e-06, No Iterations 7
GAMG:  Solving for p, Initial residual = 0.000108966319905881, Final residual = 1.08004847865575e-06, No Iterations 6
GAMG:  Solving for p, Initial residual = 3.39042850808195e-05, Final residual = 3.09793165265115e-07, No Iterations 6
GAMG:  Solving for p, Initial residual = 1.17479695654363e-05, Final residual = 1.11182130203806e-07, No Iterations 6
time step continuity errors : sum local = 1.19382039761019e-07, global = 1.5330526683906e-09, cumulative = -4.31232844015305e-05
smoothSolver:  Solving for omega, Initial residual = 0.000112550557497061, Final residual = 1.06674631787561e-05, No Iterations 3
smoothSolver:  Solving for k, Initial residual = 0.00140666721796875, Final residual = 0.000137925306406813, No Iterations 3
ExecutionTime = 459.94 s  ClockTime = 460 s

Time = 1994

smoothSolver:  Solving for Ux, Initial residual = 0.00119443488736437, Final residual = 8.38662844790087e-05, No Iterations 2
smoothSolver:  Solving for Uy, Initial residual = 0.00242029067770272, Final residual = 0.000174056802325541, No Iterations 2
smoothSolver:  Solving for Uz, Initial residual = 0.00409470343563341, Final residual = 0.000294845636240844, No Iterations 2
GAMG:  Solving for p, Initial residual = 0.0374468219160507, Final residual = 0.000282975845964986, No Iterations 6
GAMG:  Solving for p, Initial residual = 0.00277757540204717, Final residual = 2.71139752620912e-05, No Iterations 7
GAMG:  Solving for p, Initial residual = 0.00040181422504082, Final residual = 3.58368746481506e-06, No Iterations 7
GAMG:  Solving for p, Initial residual = 0.000101882967459622, Final residual = 9.60299954547073e-07, No Iterations 6
GAMG:  Solving for p, Initial residual = 3.20288630874062e-05, Final residual = 2.81680248049158e-07, No Iterations 6
GAMG:  Solving for p, Initial residual = 1.1231351007005e-05, Final residual = 1.04394211664525e-07, No Iterations 6
time step continuity errors : sum local = 1.11840794955282e-07, global = -2.71883632707019e-10, cumulative = -4.31235562851632e-05
smoothSolver:  Solving for omega, Initial residual = 0.000113592363072716, Final residual = 1.06326626380531e-05, No Iterations 3
smoothSolver:  Solving for k, Initial residual = 0.00141014730162089, Final residual = 0.000137072880174609, No Iterations 3
ExecutionTime = 460.16 s  ClockTime = 460 s

Time = 1995

smoothSolver:  Solving for Ux, Initial residual = 0.00119027427741848, Final residual = 8.2772654989182e-05, No Iterations 2
smoothSolver:  Solving for Uy, Initial residual = 0.00238562016732358, Final residual = 0.000172102678249271, No Iterations 2
smoothSolver:  Solving for Uz, Initial residual = 0.00407769011421982, Final residual = 0.000293493817377677, No Iterations 2
GAMG:  Solving for p, Initial residual = 0.0379945378058837, Final residual = 0.000271266376083097, No Iterations 6
GAMG:  Solving for p, Initial residual = 0.00276390742915214, Final residual = 2.70138714189722e-05, No Iterations 7
GAMG:  Solving for p, Initial residual = 0.000389300880381291, Final residual = 3.82683238070508e-06, No Iterations 7
GAMG:  Solving for p, Initial residual = 9.56997402902442e-05, Final residual = 7.62988107398814e-07, No Iterations 7
GAMG:  Solving for p, Initial residual = 2.92916098336402e-05, Final residual = 2.4310537068643e-07, No Iterations 6
GAMG:  Solving for p, Initial residual = 1.01394470804102e-05, Final residual = 8.59454004946605e-08, No Iterations 6
time step continuity errors : sum local = 9.17070978281087e-08, global = -1.63043766509361e-09, cumulative = -4.31251867228283e-05
smoothSolver:  Solving for omega, Initial residual = 0.000112615585754078, Final residual = 1.04059039438641e-05, No Iterations 3
smoothSolver:  Solving for k, Initial residual = 0.00140097099807763, Final residual = 0.000135406132568807, No Iterations 3
ExecutionTime = 460.38 s  ClockTime = 460 s

Time = 1996

smoothSolver:  Solving for Ux, Initial residual = 0.00118005780629575, Final residual = 8.16270895637363e-05, No Iterations 2
smoothSolver:  Solving for Uy, Initial residual = 0.00235002699329353, Final residual = 0.000170861125005922, No Iterations 2
smoothSolver:  Solving for Uz, Initial residual = 0.00404679534295836, Final residual = 0.000290759852277318, No Iterations 2
GAMG:  Solving for p, Initial residual = 0.03847354985527, Final residual = 0.000276652038891329, No Iterations 6
GAMG:  Solving for p, Initial residual = 0.00281938043990603, Final residual = 2.39294265258232e-05, No Iterations 8
GAMG:  Solving for p, Initial residual = 0.000391856403813686, Final residual = 2.95175375482752e-06, No Iterations 8
GAMG:  Solving for p, Initial residual = 9.50913839708928e-05, Final residual = 9.11477807227769e-07, No Iterations 6
GAMG:  Solving for p, Initial residual = 2.86156075561534e-05, Final residual = 2.59736938390757e-07, No Iterations 6
GAMG:  Solving for p, Initial residual = 1.00326738490363e-05, Final residual = 8.49502545716477e-08, No Iterations 6
time step continuity errors : sum local = 9.01017897652418e-08, global = -1.34017536140832e-09, cumulative = -4.31265268981897e-05
smoothSolver:  Solving for omega, Initial residual = 0.000110891583622655, Final residual = 1.01241609295502e-05, No Iterations 3
smoothSolver:  Solving for k, Initial residual = 0.00138774967873491, Final residual = 0.00013376286905874, No Iterations 3
ExecutionTime = 460.61 s  ClockTime = 461 s

Time = 1997

smoothSolver:  Solving for Ux, Initial residual = 0.00116986854804217, Final residual = 8.03347040815623e-05, No Iterations 2
smoothSolver:  Solving for Uy, Initial residual = 0.00232763546625485, Final residual = 0.000168944256328834, No Iterations 2
smoothSolver:  Solving for Uz, Initial residual = 0.00401694300895038, Final residual = 0.000286940467499726, No Iterations 2
GAMG:  Solving for p, Initial residual = 0.0383051371818517, Final residual = 0.000269685414003899, No Iterations 6
GAMG:  Solving for p, Initial residual = 0.00290724311241375, Final residual = 2.41158017168837e-05, No Iterations 8
GAMG:  Solving for p, Initial residual = 0.000417561000078151, Final residual = 3.17022348535235e-06, No Iterations 8
GAMG:  Solving for p, Initial residual = 0.000104022050486781, Final residual = 1.02436994433758e-06, No Iterations 6
GAMG:  Solving for p, Initial residual = 3.11675752328466e-05, Final residual = 3.10692393557376e-07, No Iterations 6
GAMG:  Solving for p, Initial residual = 1.10611699417214e-05, Final residual = 1.0245535437749e-07, No Iterations 6
time step continuity errors : sum local = 1.07751757231867e-07, global = -1.67820058112657e-09, cumulative = -4.31282050987708e-05
smoothSolver:  Solving for omega, Initial residual = 0.000109116595494199, Final residual = 9.92953345483575e-06, No Iterations 3
smoothSolver:  Solving for k, Initial residual = 0.00137613857032056, Final residual = 0.000132029792851373, No Iterations 3
ExecutionTime = 460.84 s  ClockTime = 461 s

Time = 1998

smoothSolver:  Solving for Ux, Initial residual = 0.00116459480123379, Final residual = 7.95550589212742e-05, No Iterations 2
smoothSolver:  Solving for Uy, Initial residual = 0.00232266960865274, Final residual = 0.000166646603312044, No Iterations 2
smoothSolver:  Solving for Uz, Initial residual = 0.00399447197320497, Final residual = 0.00028328357668709, No Iterations 2
GAMG:  Solving for p, Initial residual = 0.0378786012416328, Final residual = 0.000256089511789728, No Iterations 6
GAMG:  Solving for p, Initial residual = 0.00293128505851624, Final residual = 2.89460896779964e-05, No Iterations 7
GAMG:  Solving for p, Initial residual = 0.000420644104805136, Final residual = 3.64377841551614e-06, No Iterations 8
GAMG:  Solving for p, Initial residual = 0.000108501196942624, Final residual = 9.3204520218521e-07, No Iterations 7
GAMG:  Solving for p, Initial residual = 3.27131442429121e-05, Final residual = 2.581053145376e-07, No Iterations 7
GAMG:  Solving for p, Initial residual = 1.17931740394102e-05, Final residual = 1.13285240104857e-07, No Iterations 6
time step continuity errors : sum local = 1.18206258147017e-07, global = -1.8230072146999e-09, cumulative = -4.31300281059855e-05
smoothSolver:  Solving for omega, Initial residual = 0.000108372997077549, Final residual = 9.78944367556813e-06, No Iterations 3
smoothSolver:  Solving for k, Initial residual = 0.00134336174923438, Final residual = 0.000128793266767743, No Iterations 3
ExecutionTime = 461.07 s  ClockTime = 461 s

Time = 1999

smoothSolver:  Solving for Ux, Initial residual = 0.00116496358102112, Final residual = 7.95827306224122e-05, No Iterations 2
smoothSolver:  Solving for Uy, Initial residual = 0.00233951020644087, Final residual = 0.000166372085859195, No Iterations 2
smoothSolver:  Solving for Uz, Initial residual = 0.00400352918101064, Final residual = 0.000280755016894307, No Iterations 2
GAMG:  Solving for p, Initial residual = 0.0378823303898229, Final residual = 0.000369402738732238, No Iterations 5
GAMG:  Solving for p, Initial residual = 0.00302086520824114, Final residual = 2.44612729058509e-05, No Iterations 8
GAMG:  Solving for p, Initial residual = 0.00045521482102054, Final residual = 4.00595457722254e-06, No Iterations 7
GAMG:  Solving for p, Initial residual = 0.000112033157815642, Final residual = 9.50301002408398e-07, No Iterations 7
GAMG:  Solving for p, Initial residual = 3.47116321829545e-05, Final residual = 3.43738904909316e-07, No Iterations 6
GAMG:  Solving for p, Initial residual = 1.20248561059781e-05, Final residual = 9.8090595613424e-08, No Iterations 7
time step continuity errors : sum local = 1.01843806584771e-07, global = -1.47332223960267e-09, cumulative = -4.31315014282251e-05
smoothSolver:  Solving for omega, Initial residual = 0.00010696836386954, Final residual = 9.68032386197357e-06, No Iterations 3
smoothSolver:  Solving for k, Initial residual = 0.00131944162350572, Final residual = 0.00012504537038492, No Iterations 3
ExecutionTime = 461.29 s  ClockTime = 461 s

Time = 2000

smoothSolver:  Solving for Ux, Initial residual = 0.00116951037412445, Final residual = 8.04112714030055e-05, No Iterations 2
smoothSolver:  Solving for Uy, Initial residual = 0.0023574031972228, Final residual = 0.000166991993365782, No Iterations 2
smoothSolver:  Solving for Uz, Initial residual = 0.00401068292707156, Final residual = 0.000279407435141983, No Iterations 2
GAMG:  Solving for p, Initial residual = 0.0387412940846983, Final residual = 0.000374307212240084, No Iterations 5
GAMG:  Solving for p, Initial residual = 0.0029038382674126, Final residual = 2.4406618155555e-05, No Iterations 8
GAMG:  Solving for p, Initial residual = 0.000421071031063184, Final residual = 3.80083508921945e-06, No Iterations 7
GAMG:  Solving for p, Initial residual = 0.000102890603321771, Final residual = 8.32461149672273e-07, No Iterations 7
GAMG:  Solving for p, Initial residual = 3.13810804880904e-05, Final residual = 2.93583878948404e-07, No Iterations 6
GAMG:  Solving for p, Initial residual = 1.0973947042583e-05, Final residual = 8.58715147355297e-08, No Iterations 7
time step continuity errors : sum local = 8.91214196153715e-08, global = -1.37739980246025e-09, cumulative = -4.31328788280276e-05
smoothSolver:  Solving for omega, Initial residual = 0.000106360166983586, Final residual = 9.57086576757698e-06, No Iterations 3
smoothSolver:  Solving for k, Initial residual = 0.00129864480327563, Final residual = 0.000122534883128398, No Iterations 3
ExecutionTime = 461.6 s  ClockTime = 462 s

End

Finalising parallel run
