/*---------------------------------------------------------------------------*\
| =========                 |                                                 |
| \\      /  F ield         | OpenFOAM: The Open Source CFD Toolbox           |
|  \\    /   O peration     | Version:  2312                                  |
|   \\  /    A nd           | Website:  www.openfoam.com                      |
|    \\/     M anipulation  |                                                 |
\*---------------------------------------------------------------------------*/
Build  : _e651d635-20240208 OPENFOAM=2312 patch=240220 version=2312
Arch   : "LSB;label=32;scalar=64"
Exec   : /usr/lib/openfoam/openfoam2312/platforms/linux64GccDPInt32Opt/bin/simpleFoam -parallel
Date   : Nov 12 2025
Time   : 22:39:39
Host   : dmanzsvr
PID    : 2903991
I/O    : uncollated
Case   : /home/dman/Desktop/cfd/FreeCAD/case
nProcs : 4
Hosts  :
(
    (dmanzsvr 4)
)
Pstream initialized with:
    floatTransfer      : false
    nProcsSimpleSum    : 0
    nonBlockingExchange: 0 (tuning: 0)
    exchange algorithm : 0
    commsType          : nonBlocking
    polling iterations : 0
trapFpe: Floating point exception trapping enabled (FOAM_SIGFPE).
fileModificationChecking : Monitoring run-time modified files using timeStampMaster (fileModificationSkew 5, maxFileModificationPolls 20)
allowSystemOperations : Allowing user-supplied system call operations

// * * * * * * * * * * * * * * * * * * * * * * * * * * * * * * * * * * * * * //
Create time

Create mesh for time = 0


SIMPLE: convergence criteria
    field "(p|p_rgh)"	 tolerance 0.001
    field U	 tolerance 0.001
    field "(k|epsilon|omega|f|v2|nuTilda|gammaInt|ReThetat)"	 tolerance 0.001

Reading field p

Reading field U

Reading/calculating face flux field phi

Selecting incompressible transport model Newtonian
Selecting turbulence model type RAS
Selecting RAS turbulence model kOmegaSST
Selecting patchDistMethod meshWave
RAS
{
    RASModel        kOmegaSST;
    turbulence      on;
    printCoeffs     on;
    alphaK1         0.85;
    alphaK2         1;
    alphaOmega1     0.5;
    alphaOmega2     0.856;
    gamma1          0.555555555555556;
    gamma2          0.44;
    beta1           0.075;
    beta2           0.0828;
    betaStar        0.09;
    a1              0.31;
    b1              1;
    c1              10;
    F3              false;
    decayControl    false;
    kInf            0;
    omegaInf        0;
}

No MRF models present

No finite volume options present

Starting time loop

Time = 1

smoothSolver:  Solving for Ux, Initial residual = 1, Final residual = 0.000285469679055993, No Iterations 1
smoothSolver:  Solving for Uy, Initial residual = 1, Final residual = 0.0136043987511614, No Iterations 1
smoothSolver:  Solving for Uz, Initial residual = 1, Final residual = 0.0431023213426077, No Iterations 1
GAMG:  Solving for p, Initial residual = 1, Final residual = 0.000238581453964069, No Iterations 1
GAMG:  Solving for p, Initial residual = 0.0521054831738813, Final residual = 0.000261709550916199, No Iterations 6
GAMG:  Solving for p, Initial residual = 0.0114852363387009, Final residual = 7.23979225528321e-05, No Iterations 2
GAMG:  Solving for p, Initial residual = 0.00136465969249615, Final residual = 3.71178955300282e-06, No Iterations 3
GAMG:  Solving for p, Initial residual = 0.000295510482417062, Final residual = 2.42088400174105e-06, No Iterations 2
GAMG:  Solving for p, Initial residual = 7.56957672524447e-05, Final residual = 2.33517452949274e-07, No Iterations 3
time step continuity errors : sum local = 0.000167276870835194, global = -2.68567361213672e-05, cumulative = -2.68567361213672e-05
smoothSolver:  Solving for omega, Initial residual = 0.0314382657895836, Final residual = 0.00151737007173441, No Iterations 3
smoothSolver:  Solving for k, Initial residual = 0.999999999922413, Final residual = 0.0968125418658892, No Iterations 2
ExecutionTime = 0.32 s  ClockTime = 0 s

Time = 2

smoothSolver:  Solving for Ux, Initial residual = 0.130148459038704, Final residual = 0.00279871215965746, No Iterations 2
smoothSolver:  Solving for Uy, Initial residual = 0.517027224271977, Final residual = 0.0281154524033907, No Iterations 1
smoothSolver:  Solving for Uz, Initial residual = 0.390477198758438, Final residual = 0.0206910497534398, No Iterations 1
GAMG:  Solving for p, Initial residual = 0.999572890679741, Final residual = 0.00800628749484703, No Iterations 5
GAMG:  Solving for p, Initial residual = 0.0181112927120134, Final residual = 0.000143197274805777, No Iterations 10
GAMG:  Solving for p, Initial residual = 0.00247929756753636, Final residual = 2.46744428624949e-05, No Iterations 8
GAMG:  Solving for p, Initial residual = 0.000669126685271623, Final residual = 6.02630289560322e-06, No Iterations 8
GAMG:  Solving for p, Initial residual = 0.00020495409372603, Final residual = 1.96404470182916e-06, No Iterations 7
GAMG:  Solving for p, Initial residual = 7.88098081691748e-05, Final residual = 6.43485548779931e-07, No Iterations 7
time step continuity errors : sum local = 0.000568100248410719, global = -1.0262132349139e-06, cumulative = -2.78829493562811e-05
smoothSolver:  Solving for omega, Initial residual = 0.0393515202365337, Final residual = 0.00269124193606026, No Iterations 3
smoothSolver:  Solving for k, Initial residual = 0.416857410653853, Final residual = 0.0386615983142173, No Iterations 2
ExecutionTime = 0.56 s  ClockTime = 0 s

Time = 3

smoothSolver:  Solving for Ux, Initial residual = 0.298843040379627, Final residual = 0.0127037356086039, No Iterations 2
smoothSolver:  Solving for Uy, Initial residual = 0.357215203123885, Final residual = 0.0300793832175248, No Iterations 1
smoothSolver:  Solving for Uz, Initial residual = 0.418291873916081, Final residual = 0.00844987712476301, No Iterations 2
GAMG:  Solving for p, Initial residual = 0.985002759449197, Final residual = 0.00920223543226107, No Iterations 2
GAMG:  Solving for p, Initial residual = 0.0145407293140752, Final residual = 9.47571598684833e-05, No Iterations 5
GAMG:  Solving for p, Initial residual = 0.00231564328782799, Final residual = 1.92932885699458e-05, No Iterations 5
GAMG:  Solving for p, Initial residual = 0.000466225385605192, Final residual = 3.81275948119885e-06, No Iterations 7
GAMG:  Solving for p, Initial residual = 0.000141147941938395, Final residual = 1.16564331902174e-06, No Iterations 6
GAMG:  Solving for p, Initial residual = 4.33889281466809e-05, Final residual = 3.95292956573623e-07, No Iterations 6
time step continuity errors : sum local = 0.000121799233045692, global = -3.69458256460305e-06, cumulative = -3.15775319208842e-05
smoothSolver:  Solving for omega, Initial residual = 0.0631927440919502, Final residual = 0.00353940308846587, No Iterations 3
smoothSolver:  Solving for k, Initial residual = 0.487542986516073, Final residual = 0.0435106353417655, No Iterations 2
ExecutionTime = 0.75 s  ClockTime = 1 s

Time = 4

smoothSolver:  Solving for Ux, Initial residual = 0.49111624973334, Final residual = 0.0227145542016947, No Iterations 2
smoothSolver:  Solving for Uy, Initial residual = 0.206972305080257, Final residual = 0.00472504166010494, No Iterations 2
smoothSolver:  Solving for Uz, Initial residual = 0.275227192460391, Final residual = 0.00754434749489418, No Iterations 2
GAMG:  Solving for p, Initial residual = 0.971111580489598, Final residual = 0.00668637041898704, No Iterations 3
GAMG:  Solving for p, Initial residual = 0.0253778302148007, Final residual = 0.000119059105147689, No Iterations 4
GAMG:  Solving for p, Initial residual = 0.0035303406325713, Final residual = 1.9486042495396e-05, No Iterations 3
GAMG:  Solving for p, Initial residual = 0.000672060225171251, Final residual = 4.50097889793214e-06, No Iterations 3
GAMG:  Solving for p, Initial residual = 0.000187954730625607, Final residual = 1.28483668838332e-06, No Iterations 3
GAMG:  Solving for p, Initial residual = 5.61171872557366e-05, Final residual = 3.99785549041042e-07, No Iterations 3
time step continuity errors : sum local = 9.40876967263163e-05, global = 1.7797772866291e-06, cumulative = -2.97977546342551e-05
smoothSolver:  Solving for omega, Initial residual = 0.0298687768985584, Final residual = 0.00161276761631448, No Iterations 3
smoothSolver:  Solving for k, Initial residual = 0.288992967010689, Final residual = 0.02586899006517, No Iterations 2
ExecutionTime = 0.9 s  ClockTime = 1 s

Time = 5

smoothSolver:  Solving for Ux, Initial residual = 0.162381121492549, Final residual = 0.00815459646538011, No Iterations 2
smoothSolver:  Solving for Uy, Initial residual = 0.195028410311368, Final residual = 0.0057175769712187, No Iterations 2
smoothSolver:  Solving for Uz, Initial residual = 0.358137416164972, Final residual = 0.0107050529850726, No Iterations 2
GAMG:  Solving for p, Initial residual = 0.957675454440184, Final residual = 0.00472740670462456, No Iterations 4
GAMG:  Solving for p, Initial residual = 0.0135279380558944, Final residual = 6.68997182707203e-05, No Iterations 3
GAMG:  Solving for p, Initial residual = 0.00174849873643445, Final residual = 1.0838527038951e-05, No Iterations 3
GAMG:  Solving for p, Initial residual = 0.000402640894721175, Final residual = 2.38594972622389e-06, No Iterations 3
GAMG:  Solving for p, Initial residual = 0.000114560153802239, Final residual = 6.17818831900117e-07, No Iterations 3
GAMG:  Solving for p, Initial residual = 3.69560142498496e-05, Final residual = 1.94634967840169e-07, No Iterations 3
time step continuity errors : sum local = 7.80836056061408e-05, global = 2.86062859925874e-06, cumulative = -2.69371260349964e-05
smoothSolver:  Solving for omega, Initial residual = 0.023055804362853, Final residual = 0.00115315354757966, No Iterations 3
smoothSolver:  Solving for k, Initial residual = 0.220368977837475, Final residual = 0.0189458369181526, No Iterations 2
ExecutionTime = 1.06 s  ClockTime = 1 s

Time = 6

smoothSolver:  Solving for Ux, Initial residual = 0.355809051737837, Final residual = 0.0156790231993821, No Iterations 2
smoothSolver:  Solving for Uy, Initial residual = 0.153301675607444, Final residual = 0.00422379627416382, No Iterations 2
smoothSolver:  Solving for Uz, Initial residual = 0.232494064347278, Final residual = 0.00691920391534097, No Iterations 2
GAMG:  Solving for p, Initial residual = 0.422827456868622, Final residual = 0.00271009901033567, No Iterations 2
GAMG:  Solving for p, Initial residual = 0.00994152379680665, Final residual = 6.2506667350722e-05, No Iterations 4
GAMG:  Solving for p, Initial residual = 0.00196494981333327, Final residual = 1.05036164121787e-05, No Iterations 3
GAMG:  Solving for p, Initial residual = 0.000322151138907432, Final residual = 2.4286056869985e-06, No Iterations 3
GAMG:  Solving for p, Initial residual = 9.04669112842891e-05, Final residual = 7.10409203263607e-07, No Iterations 3
GAMG:  Solving for p, Initial residual = 2.68734023080482e-05, Final residual = 2.60428161256599e-07, No Iterations 3
time step continuity errors : sum local = 3.37110769074677e-05, global = 2.15871103173744e-06, cumulative = -2.47784150032589e-05
smoothSolver:  Solving for omega, Initial residual = 0.0234389715428935, Final residual = 0.00107191983475011, No Iterations 3
smoothSolver:  Solving for k, Initial residual = 0.197285827676695, Final residual = 0.0155763879717208, No Iterations 2
ExecutionTime = 1.21 s  ClockTime = 1 s

Time = 7

smoothSolver:  Solving for Ux, Initial residual = 0.375113911782316, Final residual = 0.0172630143946944, No Iterations 2
smoothSolver:  Solving for Uy, Initial residual = 0.131228857561311, Final residual = 0.00383624625448243, No Iterations 2
smoothSolver:  Solving for Uz, Initial residual = 0.232622994630574, Final residual = 0.0077435321847059, No Iterations 2
GAMG:  Solving for p, Initial residual = 0.328687439588831, Final residual = 0.0018680745208922, No Iterations 4
GAMG:  Solving for p, Initial residual = 0.017987515000397, Final residual = 8.79534216535761e-05, No Iterations 3
GAMG:  Solving for p, Initial residual = 0.00204520251209595, Final residual = 1.4123220163564e-05, No Iterations 3
GAMG:  Solving for p, Initial residual = 0.000430829286343131, Final residual = 3.06937193073135e-06, No Iterations 3
GAMG:  Solving for p, Initial residual = 0.00011952849873954, Final residual = 7.87152761322119e-07, No Iterations 3
GAMG:  Solving for p, Initial residual = 3.69642306818551e-05, Final residual = 2.02575010601665e-07, No Iterations 3
time step continuity errors : sum local = 4.05923296156776e-05, global = -1.88245733895025e-06, cumulative = -2.66608723422092e-05
smoothSolver:  Solving for omega, Initial residual = 0.0263777479366584, Final residual = 0.00251657726852344, No Iterations 2
smoothSolver:  Solving for k, Initial residual = 0.185670659692294, Final residual = 0.0124303162267686, No Iterations 2
ExecutionTime = 1.36 s  ClockTime = 1 s

Time = 8

smoothSolver:  Solving for Ux, Initial residual = 0.0709899481943285, Final residual = 0.00257346218639722, No Iterations 2
smoothSolver:  Solving for Uy, Initial residual = 0.173703263976581, Final residual = 0.00554412815513144, No Iterations 2
smoothSolver:  Solving for Uz, Initial residual = 0.294114145347631, Final residual = 0.00983506758563511, No Iterations 2
GAMG:  Solving for p, Initial residual = 0.724023740615681, Final residual = 0.00435298398609294, No Iterations 4
GAMG:  Solving for p, Initial residual = 0.0121588407918202, Final residual = 5.49604217782358e-05, No Iterations 3
GAMG:  Solving for p, Initial residual = 0.0014696314232542, Final residual = 8.13679082186352e-06, No Iterations 3
GAMG:  Solving for p, Initial residual = 0.000340947523627463, Final residual = 1.8475707973983e-06, No Iterations 3
GAMG:  Solving for p, Initial residual = 9.23786027083488e-05, Final residual = 4.75082168298259e-07, No Iterations 3
GAMG:  Solving for p, Initial residual = 2.95563064809747e-05, Final residual = 1.34044341057322e-07, No Iterations 3
time step continuity errors : sum local = 3.10355377338339e-05, global = -1.13592152770112e-06, cumulative = -2.77967938699103e-05
smoothSolver:  Solving for omega, Initial residual = 0.0269158001948879, Final residual = 0.00224207578242134, No Iterations 2
smoothSolver:  Solving for k, Initial residual = 0.18028765207723, Final residual = 0.00984338397613503, No Iterations 2
ExecutionTime = 1.51 s  ClockTime = 1 s

Time = 9

smoothSolver:  Solving for Ux, Initial residual = 0.269523065118302, Final residual = 0.0129622350957957, No Iterations 2
smoothSolver:  Solving for Uy, Initial residual = 0.13320147041244, Final residual = 0.00408488948551505, No Iterations 2
smoothSolver:  Solving for Uz, Initial residual = 0.226037738758878, Final residual = 0.00708923194657515, No Iterations 2
GAMG:  Solving for p, Initial residual = 0.539809495215744, Final residual = 0.00244132816046975, No Iterations 3
GAMG:  Solving for p, Initial residual = 0.0156232523269045, Final residual = 8.96612320036596e-05, No Iterations 4
GAMG:  Solving for p, Initial residual = 0.00245156285280144, Final residual = 1.76273747880181e-05, No Iterations 3
GAMG:  Solving for p, Initial residual = 0.000475434566822553, Final residual = 3.85470639807686e-06, No Iterations 3
GAMG:  Solving for p, Initial residual = 0.000125570412545531, Final residual = 9.26804076403555e-07, No Iterations 3
GAMG:  Solving for p, Initial residual = 3.55249240730911e-05, Final residual = 2.66885569454648e-07, No Iterations 3
time step continuity errors : sum local = 1.2322839655296e-05, global = 3.81616687482004e-07, cumulative = -2.74151771824283e-05
smoothSolver:  Solving for omega, Initial residual = 0.0247504417470318, Final residual = 0.00197368913804469, No Iterations 2
smoothSolver:  Solving for k, Initial residual = 0.153666463465448, Final residual = 0.00775205561159373, No Iterations 2
ExecutionTime = 1.67 s  ClockTime = 2 s

Time = 10

smoothSolver:  Solving for Ux, Initial residual = 0.227412342544751, Final residual = 0.0110973260227563, No Iterations 2
smoothSolver:  Solving for Uy, Initial residual = 0.08238645997691, Final residual = 0.00267506684279779, No Iterations 2
smoothSolver:  Solving for Uz, Initial residual = 0.200161922817667, Final residual = 0.00649844073278532, No Iterations 2
GAMG:  Solving for p, Initial residual = 0.412015863381776, Final residual = 0.00393006741394317, No Iterations 4
GAMG:  Solving for p, Initial residual = 0.0166272417814099, Final residual = 9.00034146500324e-05, No Iterations 3
GAMG:  Solving for p, Initial residual = 0.00187712244040171, Final residual = 1.31301489906389e-05, No Iterations 3
GAMG:  Solving for p, Initial residual = 0.000407989817462946, Final residual = 2.75320237271471e-06, No Iterations 3
GAMG:  Solving for p, Initial residual = 0.00010226070613759, Final residual = 6.62803867870769e-07, No Iterations 3
GAMG:  Solving for p, Initial residual = 3.19362926182482e-05, Final residual = 1.69655096095749e-07, No Iterations 3
time step continuity errors : sum local = 2.25857855031584e-05, global = 9.71388537572552e-07, cumulative = -2.64437886448557e-05
smoothSolver:  Solving for omega, Initial residual = 0.0198768213127322, Final residual = 0.00160693636460857, No Iterations 2
smoothSolver:  Solving for k, Initial residual = 0.124648063461338, Final residual = 0.00623055371461742, No Iterations 2
ExecutionTime = 1.83 s  ClockTime = 2 s

Time = 11

smoothSolver:  Solving for Ux, Initial residual = 0.047697837952466, Final residual = 0.0013779339459638, No Iterations 2
smoothSolver:  Solving for Uy, Initial residual = 0.0957047833711314, Final residual = 0.00324322031394243, No Iterations 2
smoothSolver:  Solving for Uz, Initial residual = 0.185234771602951, Final residual = 0.00702353157324402, No Iterations 2
GAMG:  Solving for p, Initial residual = 0.835332587170262, Final residual = 0.00637222380833615, No Iterations 4
GAMG:  Solving for p, Initial residual = 0.0117605577053617, Final residual = 5.38315556979449e-05, No Iterations 3
GAMG:  Solving for p, Initial residual = 0.00142199456150395, Final residual = 8.42167513685716e-06, No Iterations 3
GAMG:  Solving for p, Initial residual = 0.000328395058521233, Final residual = 1.92365930461304e-06, No Iterations 3
GAMG:  Solving for p, Initial residual = 8.92092955160695e-05, Final residual = 5.07912142692098e-07, No Iterations 3
GAMG:  Solving for p, Initial residual = 2.89736286475415e-05, Final residual = 1.37911074218139e-07, No Iterations 3
time step continuity errors : sum local = 1.73571516974975e-05, global = 7.22243133667224e-07, cumulative = -2.57215455111885e-05
smoothSolver:  Solving for omega, Initial residual = 0.0144383062128773, Final residual = 0.00124782988962119, No Iterations 2
smoothSolver:  Solving for k, Initial residual = 0.102288896089087, Final residual = 0.00509351371839751, No Iterations 2
ExecutionTime = 1.97 s  ClockTime = 2 s

Time = 12

smoothSolver:  Solving for Ux, Initial residual = 0.176131899295322, Final residual = 0.0080632122125628, No Iterations 2
smoothSolver:  Solving for Uy, Initial residual = 0.088518986083224, Final residual = 0.00277417414950433, No Iterations 2
smoothSolver:  Solving for Uz, Initial residual = 0.149017613815974, Final residual = 0.00532637248172096, No Iterations 2
GAMG:  Solving for p, Initial residual = 0.22265552790141, Final residual = 0.00221430085478989, No Iterations 3
GAMG:  Solving for p, Initial residual = 0.043224094627858, Final residual = 0.000317078909775383, No Iterations 4
GAMG:  Solving for p, Initial residual = 0.00983690833839483, Final residual = 7.92450277098969e-05, No Iterations 3
GAMG:  Solving for p, Initial residual = 0.00118482328481759, Final residual = 8.80156564118337e-06, No Iterations 4
GAMG:  Solving for p, Initial residual = 0.000269675966059557, Final residual = 2.34100733737065e-06, No Iterations 3
GAMG:  Solving for p, Initial residual = 7.15435894703399e-05, Final residual = 4.36080771405147e-07, No Iterations 4
time step continuity errors : sum local = 4.19634618972768e-06, global = -9.97544324700734e-08, cumulative = -2.58212999436586e-05
smoothSolver:  Solving for omega, Initial residual = 0.0103506055222851, Final residual = 0.000950827749639135, No Iterations 2
smoothSolver:  Solving for k, Initial residual = 0.0885933347691718, Final residual = 0.00428605359700512, No Iterations 2
ExecutionTime = 2.13 s  ClockTime = 2 s

Time = 13

smoothSolver:  Solving for Ux, Initial residual = 0.132284810373797, Final residual = 0.00594315295102578, No Iterations 2
smoothSolver:  Solving for Uy, Initial residual = 0.0724511302624831, Final residual = 0.00255998715357474, No Iterations 2
smoothSolver:  Solving for Uz, Initial residual = 0.156716850880817, Final residual = 0.0054430532442589, No Iterations 2
GAMG:  Solving for p, Initial residual = 0.235524563053281, Final residual = 0.000860860359146705, No Iterations 5
GAMG:  Solving for p, Initial residual = 0.0149986338809025, Final residual = 5.3822007868723e-05, No Iterations 3
GAMG:  Solving for p, Initial residual = 0.00157656416591554, Final residual = 8.8820646643219e-06, No Iterations 3
GAMG:  Solving for p, Initial residual = 0.000324456442640991, Final residual = 1.98104504817692e-06, No Iterations 3
GAMG:  Solving for p, Initial residual = 8.49553349422731e-05, Final residual = 5.49824992164397e-07, No Iterations 3
GAMG:  Solving for p, Initial residual = 2.58535619886631e-05, Final residual = 1.47293292238219e-07, No Iterations 3
time step continuity errors : sum local = 1.28888866239949e-05, global = -5.95165250540409e-07, cumulative = -2.6416465194199e-05
smoothSolver:  Solving for omega, Initial residual = 0.00777777209045838, Final residual = 0.000688567679192182, No Iterations 2
smoothSolver:  Solving for k, Initial residual = 0.0785933969952088, Final residual = 0.00360112106291317, No Iterations 2
ExecutionTime = 2.29 s  ClockTime = 2 s

Time = 14

smoothSolver:  Solving for Ux, Initial residual = 0.0554327170835529, Final residual = 0.00245523527053156, No Iterations 2
smoothSolver:  Solving for Uy, Initial residual = 0.0757962674394394, Final residual = 0.00282561669574119, No Iterations 2
smoothSolver:  Solving for Uz, Initial residual = 0.170925377302294, Final residual = 0.00617960602357094, No Iterations 2
GAMG:  Solving for p, Initial residual = 0.777289981095617, Final residual = 0.00632010576391928, No Iterations 4
GAMG:  Solving for p, Initial residual = 0.0117138078195168, Final residual = 5.38000479186691e-05, No Iterations 3
GAMG:  Solving for p, Initial residual = 0.00137536696234847, Final residual = 7.88868179145656e-06, No Iterations 3
GAMG:  Solving for p, Initial residual = 0.0003039947102292, Final residual = 1.8962451438324e-06, No Iterations 3
GAMG:  Solving for p, Initial residual = 8.39252158649941e-05, Final residual = 5.75227209822979e-07, No Iterations 3
GAMG:  Solving for p, Initial residual = 2.66174232214612e-05, Final residual = 1.87572854682913e-07, No Iterations 3
time step continuity errors : sum local = 1.29162589417305e-05, global = -6.00570679807709e-07, cumulative = -2.70170358740067e-05
smoothSolver:  Solving for omega, Initial residual = 0.00606103135938511, Final residual = 0.000490444965950368, No Iterations 2
smoothSolver:  Solving for k, Initial residual = 0.0695723180817942, Final residual = 0.00307035838298735, No Iterations 2
ExecutionTime = 2.44 s  ClockTime = 2 s

Time = 15

smoothSolver:  Solving for Ux, Initial residual = 0.123856416504692, Final residual = 0.00631977690951769, No Iterations 2
smoothSolver:  Solving for Uy, Initial residual = 0.0680993957673818, Final residual = 0.00243574595884565, No Iterations 2
smoothSolver:  Solving for Uz, Initial residual = 0.155715843157396, Final residual = 0.00557461148270087, No Iterations 2
GAMG:  Solving for p, Initial residual = 0.213555162718535, Final residual = 0.00191328841738937, No Iterations 4
GAMG:  Solving for p, Initial residual = 0.0402309314684646, Final residual = 0.000335827152374365, No Iterations 3
GAMG:  Solving for p, Initial residual = 0.00335900090579252, Final residual = 2.40250284890022e-05, No Iterations 4
GAMG:  Solving for p, Initial residual = 0.000556427761547905, Final residual = 2.98665760930293e-06, No Iterations 4
GAMG:  Solving for p, Initial residual = 0.00013483643735017, Final residual = 1.06445005617625e-06, No Iterations 3
GAMG:  Solving for p, Initial residual = 3.79015104580384e-05, Final residual = 3.52180021688691e-07, No Iterations 3
time step continuity errors : sum local = 4.77792475115077e-06, global = 1.17644220571678e-07, cumulative = -2.6899391653435e-05
smoothSolver:  Solving for omega, Initial residual = 0.00520407363925399, Final residual = 0.000387525033490128, No Iterations 2
smoothSolver:  Solving for k, Initial residual = 0.0615453731271911, Final residual = 0.00273765571761659, No Iterations 2
ExecutionTime = 2.6 s  ClockTime = 3 s

Time = 16

smoothSolver:  Solving for Ux, Initial residual = 0.0803358968812223, Final residual = 0.00413965222259492, No Iterations 2
smoothSolver:  Solving for Uy, Initial residual = 0.0584474399120284, Final residual = 0.00209905028380511, No Iterations 2
smoothSolver:  Solving for Uz, Initial residual = 0.14185171656252, Final residual = 0.00572134211640746, No Iterations 2
GAMG:  Solving for p, Initial residual = 0.266331532346256, Final residual = 0.0012882018146262, No Iterations 5
GAMG:  Solving for p, Initial residual = 0.0146852377909581, Final residual = 6.69315316224221e-05, No Iterations 3
GAMG:  Solving for p, Initial residual = 0.00148150689883559, Final residual = 1.13947755395309e-05, No Iterations 3
GAMG:  Solving for p, Initial residual = 0.00030871385601206, Final residual = 2.76489498702989e-06, No Iterations 3
GAMG:  Solving for p, Initial residual = 7.65354697882963e-05, Final residual = 5.01193507872293e-07, No Iterations 4
GAMG:  Solving for p, Initial residual = 2.27257777026883e-05, Final residual = 1.37058463693858e-07, No Iterations 3
time step continuity errors : sum local = 7.41665618728227e-06, global = 2.13512513951525e-07, cumulative = -2.66858791394835e-05
smoothSolver:  Solving for omega, Initial residual = 0.00470062178588172, Final residual = 0.000343875478944463, No Iterations 2
smoothSolver:  Solving for k, Initial residual = 0.0547364301825585, Final residual = 0.00259543956347125, No Iterations 2
ExecutionTime = 2.75 s  ClockTime = 3 s

Time = 17

smoothSolver:  Solving for Ux, Initial residual = 0.0468672291348574, Final residual = 0.00173772132379653, No Iterations 2
smoothSolver:  Solving for Uy, Initial residual = 0.0610208531291021, Final residual = 0.00226161053298532, No Iterations 2
smoothSolver:  Solving for Uz, Initial residual = 0.135888982621576, Final residual = 0.00589071161436744, No Iterations 2
GAMG:  Solving for p, Initial residual = 0.375711571197442, Final residual = 0.00325382796267168, No Iterations 4
GAMG:  Solving for p, Initial residual = 0.0129566551241683, Final residual = 8.18900954472772e-05, No Iterations 3
GAMG:  Solving for p, Initial residual = 0.00143081861435358, Final residual = 1.30108570798476e-05, No Iterations 3
GAMG:  Solving for p, Initial residual = 0.000286225150616468, Final residual = 1.8886189685085e-06, No Iterations 4
GAMG:  Solving for p, Initial residual = 7.18295902805078e-05, Final residual = 6.40520129395353e-07, No Iterations 3
GAMG:  Solving for p, Initial residual = 2.01539339636765e-05, Final residual = 1.33398583342407e-07, No Iterations 4
time step continuity errors : sum local = 4.80498215857474e-06, global = 6.8288354790104e-08, cumulative = -2.66175907846934e-05
smoothSolver:  Solving for omega, Initial residual = 0.00434660115963541, Final residual = 0.000327372923946154, No Iterations 2
smoothSolver:  Solving for k, Initial residual = 0.048949496251887, Final residual = 0.00254530282692997, No Iterations 2
ExecutionTime = 2.91 s  ClockTime = 3 s

Time = 18

smoothSolver:  Solving for Ux, Initial residual = 0.0759884146574497, Final residual = 0.00330689312329189, No Iterations 2
smoothSolver:  Solving for Uy, Initial residual = 0.0602521899598149, Final residual = 0.00221994239652025, No Iterations 2
smoothSolver:  Solving for Uz, Initial residual = 0.129783268348282, Final residual = 0.00521216912526314, No Iterations 2
GAMG:  Solving for p, Initial residual = 0.196830835059522, Final residual = 0.00143470628658641, No Iterations 4
GAMG:  Solving for p, Initial residual = 0.0261491784078896, Final residual = 0.000171156525324066, No Iterations 3
GAMG:  Solving for p, Initial residual = 0.00235530663088031, Final residual = 1.81690083483178e-05, No Iterations 4
GAMG:  Solving for p, Initial residual = 0.000419997911764505, Final residual = 2.92057865271584e-06, No Iterations 4
GAMG:  Solving for p, Initial residual = 0.000105447758666091, Final residual = 6.55528552693511e-07, No Iterations 4
GAMG:  Solving for p, Initial residual = 3.04461776830771e-05, Final residual = 2.84259516797997e-07, No Iterations 3
time step continuity errors : sum local = 4.50962654852655e-06, global = -1.04823722157873e-07, cumulative = -2.67224145068513e-05
smoothSolver:  Solving for omega, Initial residual = 0.00413117282238779, Final residual = 0.000322053450353745, No Iterations 2
smoothSolver:  Solving for k, Initial residual = 0.0438723046459666, Final residual = 0.00251493564818269, No Iterations 2
ExecutionTime = 3.07 s  ClockTime = 3 s

Time = 19

smoothSolver:  Solving for Ux, Initial residual = 0.0478716008822514, Final residual = 0.00202278290173651, No Iterations 2
smoothSolver:  Solving for Uy, Initial residual = 0.0580750195032913, Final residual = 0.00218237788650479, No Iterations 2
smoothSolver:  Solving for Uz, Initial residual = 0.130641144427003, Final residual = 0.00487431385205944, No Iterations 2
GAMG:  Solving for p, Initial residual = 0.302265024181997, Final residual = 0.00239767499028894, No Iterations 4
GAMG:  Solving for p, Initial residual = 0.0142244182210968, Final residual = 8.00804858400461e-05, No Iterations 3
GAMG:  Solving for p, Initial residual = 0.00141265458323469, Final residual = 8.38559777721985e-06, No Iterations 4
GAMG:  Solving for p, Initial residual = 0.00028343891072735, Final residual = 2.56179605305504e-06, No Iterations 3
GAMG:  Solving for p, Initial residual = 7.47103949557767e-05, Final residual = 4.82323234125662e-07, No Iterations 4
GAMG:  Solving for p, Initial residual = 2.21736095085355e-05, Final residual = 1.86533654205976e-07, No Iterations 3
time step continuity errors : sum local = 6.47711014758434e-06, global = -1.82830772193198e-07, cumulative = -2.69052452790445e-05
smoothSolver:  Solving for omega, Initial residual = 0.00400161540394329, Final residual = 0.000321290228220621, No Iterations 2
smoothSolver:  Solving for k, Initial residual = 0.0393621247825498, Final residual = 0.00244687953936326, No Iterations 2
ExecutionTime = 3.22 s  ClockTime = 3 s

Time = 20

smoothSolver:  Solving for Ux, Initial residual = 0.0474089233345527, Final residual = 0.00241031841564385, No Iterations 2
smoothSolver:  Solving for Uy, Initial residual = 0.0565528364006691, Final residual = 0.00222133687978367, No Iterations 2
smoothSolver:  Solving for Uz, Initial residual = 0.129457164106662, Final residual = 0.00509703846548501, No Iterations 2
GAMG:  Solving for p, Initial residual = 0.31319996564156, Final residual = 0.00165159460015098, No Iterations 4
GAMG:  Solving for p, Initial residual = 0.0134679038216315, Final residual = 8.46788306433728e-05, No Iterations 3
GAMG:  Solving for p, Initial residual = 0.00147328112247591, Final residual = 1.05099849810706e-05, No Iterations 4
GAMG:  Solving for p, Initial residual = 0.000281690458494785, Final residual = 2.22809206374664e-06, No Iterations 4
GAMG:  Solving for p, Initial residual = 7.24441333108776e-05, Final residual = 5.64367796036488e-07, No Iterations 4
GAMG:  Solving for p, Initial residual = 2.0842797554159e-05, Final residual = 1.47148236367215e-07, No Iterations 4
time step continuity errors : sum local = 3.04744415737187e-06, global = -1.84166499454374e-07, cumulative = -2.70894117784988e-05
smoothSolver:  Solving for omega, Initial residual = 0.00390148334357546, Final residual = 0.000319358731355773, No Iterations 2
smoothSolver:  Solving for k, Initial residual = 0.0354589797013935, Final residual = 0.00234744774309054, No Iterations 2
ExecutionTime = 3.39 s  ClockTime = 3 s

Time = 21

smoothSolver:  Solving for Ux, Initial residual = 0.0585614897849364, Final residual = 0.00315349641950751, No Iterations 2
smoothSolver:  Solving for Uy, Initial residual = 0.0516504921030147, Final residual = 0.00208734430131894, No Iterations 2
smoothSolver:  Solving for Uz, Initial residual = 0.115224558486382, Final residual = 0.00480586355675998, No Iterations 2
GAMG:  Solving for p, Initial residual = 0.209534327641669, Final residual = 0.00141628177474061, No Iterations 4
GAMG:  Solving for p, Initial residual = 0.0256568230464539, Final residual = 0.000183079425692744, No Iterations 3
GAMG:  Solving for p, Initial residual = 0.00213257744325813, Final residual = 1.84832662479739e-05, No Iterations 4
GAMG:  Solving for p, Initial residual = 0.00035213442225661, Final residual = 3.04534413286566e-06, No Iterations 4
GAMG:  Solving for p, Initial residual = 8.17859842391494e-05, Final residual = 7.39647854022455e-07, No Iterations 4
GAMG:  Solving for p, Initial residual = 2.15355886051785e-05, Final residual = 2.0646663402173e-07, No Iterations 4
time step continuity errors : sum local = 2.48931472792511e-06, global = 2.70319475524488e-08, cumulative = -2.70623798309464e-05
smoothSolver:  Solving for omega, Initial residual = 0.00379199250639307, Final residual = 0.000317189694753907, No Iterations 2
smoothSolver:  Solving for k, Initial residual = 0.0325152621284027, Final residual = 0.00226309556857376, No Iterations 2
ExecutionTime = 3.55 s  ClockTime = 3 s

Time = 22

smoothSolver:  Solving for Ux, Initial residual = 0.0412003175148871, Final residual = 0.00218661627522239, No Iterations 2
smoothSolver:  Solving for Uy, Initial residual = 0.0493762596121172, Final residual = 0.00196119633695766, No Iterations 2
smoothSolver:  Solving for Uz, Initial residual = 0.110986956001364, Final residual = 0.00489751002553493, No Iterations 2
GAMG:  Solving for p, Initial residual = 0.32567458187801, Final residual = 0.00204685716075761, No Iterations 4
GAMG:  Solving for p, Initial residual = 0.0154240458365511, Final residual = 0.000100158549141901, No Iterations 3
GAMG:  Solving for p, Initial residual = 0.0013497311880773, Final residual = 1.06531490487709e-05, No Iterations 4
GAMG:  Solving for p, Initial residual = 0.000237965223209701, Final residual = 1.71397339441873e-06, No Iterations 4
GAMG:  Solving for p, Initial residual = 5.56264474778734e-05, Final residual = 4.12161732387517e-07, No Iterations 4
GAMG:  Solving for p, Initial residual = 1.50056826612005e-05, Final residual = 9.46509475877653e-08, No Iterations 4
time step continuity errors : sum local = 1.9435293289183e-06, global = 7.50665296032889e-09, cumulative = -2.70548731779861e-05
smoothSolver:  Solving for omega, Initial residual = 0.00366925548764447, Final residual = 0.000316567762311029, No Iterations 2
smoothSolver:  Solving for k, Initial residual = 0.0302678784425459, Final residual = 0.00219258809262884, No Iterations 2
ExecutionTime = 3.71 s  ClockTime = 4 s

Time = 23

smoothSolver:  Solving for Ux, Initial residual = 0.0381190477648177, Final residual = 0.0016314282292286, No Iterations 2
smoothSolver:  Solving for Uy, Initial residual = 0.0506063013011244, Final residual = 0.00195866243684595, No Iterations 2
smoothSolver:  Solving for Uz, Initial residual = 0.113321541670808, Final residual = 0.00511472811098492, No Iterations 2
GAMG:  Solving for p, Initial residual = 0.362363461391248, Final residual = 0.00156004249371381, No Iterations 4
GAMG:  Solving for p, Initial residual = 0.0163957462478604, Final residual = 0.000123883132701862, No Iterations 3
GAMG:  Solving for p, Initial residual = 0.00152835010126009, Final residual = 1.42396685646002e-05, No Iterations 4
GAMG:  Solving for p, Initial residual = 0.000266483427971541, Final residual = 2.65853214222136e-06, No Iterations 4
GAMG:  Solving for p, Initial residual = 6.41009738310632e-05, Final residual = 6.279358178623e-07, No Iterations 4
GAMG:  Solving for p, Initial residual = 1.82232732840635e-05, Final residual = 1.68715492054837e-07, No Iterations 4
time step continuity errors : sum local = 1.81277604714202e-06, global = 2.38188290054521e-08, cumulative = -2.70310543489806e-05
smoothSolver:  Solving for omega, Initial residual = 0.00352984652233867, Final residual = 0.000316061950564744, No Iterations 2
smoothSolver:  Solving for k, Initial residual = 0.0284498817969436, Final residual = 0.00214981544934273, No Iterations 2
ExecutionTime = 3.88 s  ClockTime = 4 s

Time = 24

smoothSolver:  Solving for Ux, Initial residual = 0.0402755419038082, Final residual = 0.00169715387907448, No Iterations 2
smoothSolver:  Solving for Uy, Initial residual = 0.0499898531013163, Final residual = 0.00196642681813434, No Iterations 2
smoothSolver:  Solving for Uz, Initial residual = 0.112370593616351, Final residual = 0.00518670796848127, No Iterations 2
GAMG:  Solving for p, Initial residual = 0.28733191391952, Final residual = 0.00164471537423064, No Iterations 4
GAMG:  Solving for p, Initial residual = 0.0213203535908384, Final residual = 0.000151741734079384, No Iterations 3
GAMG:  Solving for p, Initial residual = 0.00189846762057649, Final residual = 1.50148689152707e-05, No Iterations 4
GAMG:  Solving for p, Initial residual = 0.0003268860215969, Final residual = 2.48861478072418e-06, No Iterations 4
GAMG:  Solving for p, Initial residual = 7.79574374382682e-05, Final residual = 5.7612157341084e-07, No Iterations 4
GAMG:  Solving for p, Initial residual = 2.10464838987342e-05, Final residual = 1.58404075737091e-07, No Iterations 4
time step continuity errors : sum local = 1.63834004227377e-06, global = -1.94204124799957e-08, cumulative = -2.70504747614606e-05
smoothSolver:  Solving for omega, Initial residual = 0.00340471421756821, Final residual = 0.000315767114854561, No Iterations 2
smoothSolver:  Solving for k, Initial residual = 0.0266831013279351, Final residual = 0.0021009617296256, No Iterations 2
ExecutionTime = 4.04 s  ClockTime = 4 s

Time = 25

smoothSolver:  Solving for Ux, Initial residual = 0.0342249717875432, Final residual = 0.00171064964395353, No Iterations 2
smoothSolver:  Solving for Uy, Initial residual = 0.0480363701742395, Final residual = 0.00197644780516577, No Iterations 2
smoothSolver:  Solving for Uz, Initial residual = 0.110938780587737, Final residual = 0.00529974739476293, No Iterations 2
GAMG:  Solving for p, Initial residual = 0.505302301315573, Final residual = 0.00281850467986852, No Iterations 4
GAMG:  Solving for p, Initial residual = 0.0151961014170388, Final residual = 9.03531473109846e-05, No Iterations 3
GAMG:  Solving for p, Initial residual = 0.0014285070075524, Final residual = 1.12797286328952e-05, No Iterations 4
GAMG:  Solving for p, Initial residual = 0.000252865407115222, Final residual = 2.15370206433947e-06, No Iterations 4
GAMG:  Solving for p, Initial residual = 6.10412234070419e-05, Final residual = 5.22575617484231e-07, No Iterations 4
GAMG:  Solving for p, Initial residual = 1.64963250492415e-05, Final residual = 1.44100064466589e-07, No Iterations 4
time step continuity errors : sum local = 1.98643734188698e-06, global = -1.18284594621264e-08, cumulative = -2.70623032209227e-05
smoothSolver:  Solving for omega, Initial residual = 0.00330650124917637, Final residual = 0.000313531400329844, No Iterations 2
smoothSolver:  Solving for k, Initial residual = 0.0246065681541837, Final residual = 0.00201006131639022, No Iterations 2
ExecutionTime = 4.22 s  ClockTime = 4 s

Time = 26

smoothSolver:  Solving for Ux, Initial residual = 0.0373801543895558, Final residual = 0.00209974199363021, No Iterations 2
smoothSolver:  Solving for Uy, Initial residual = 0.0452007084370361, Final residual = 0.00189168831294256, No Iterations 2
smoothSolver:  Solving for Uz, Initial residual = 0.105297911280499, Final residual = 0.00507021270218098, No Iterations 2
GAMG:  Solving for p, Initial residual = 0.315257163477198, Final residual = 0.00283331826292697, No Iterations 3
GAMG:  Solving for p, Initial residual = 0.0199628808034962, Final residual = 0.0001296516001021, No Iterations 4
GAMG:  Solving for p, Initial residual = 0.00197897097407678, Final residual = 1.83026548779996e-05, No Iterations 4
GAMG:  Solving for p, Initial residual = 0.000329273923703768, Final residual = 2.53300520793229e-06, No Iterations 5
GAMG:  Solving for p, Initial residual = 8.21923097958922e-05, Final residual = 7.91749287437899e-07, No Iterations 4
GAMG:  Solving for p, Initial residual = 2.29361407212472e-05, Final residual = 2.00032988534874e-07, No Iterations 5
time step continuity errors : sum local = 1.49074817258296e-06, global = -1.36976159150519e-08, cumulative = -2.70760008368378e-05
smoothSolver:  Solving for omega, Initial residual = 0.00318822849138867, Final residual = 0.000307485177544989, No Iterations 2
smoothSolver:  Solving for k, Initial residual = 0.0221227018090127, Final residual = 0.00186992695827999, No Iterations 2
ExecutionTime = 4.39 s  ClockTime = 4 s

Time = 27

smoothSolver:  Solving for Ux, Initial residual = 0.0371254330877728, Final residual = 0.00212432433635264, No Iterations 2
smoothSolver:  Solving for Uy, Initial residual = 0.0427117133068193, Final residual = 0.00181676955722169, No Iterations 2
smoothSolver:  Solving for Uz, Initial residual = 0.096678096675422, Final residual = 0.00466267634373546, No Iterations 2
GAMG:  Solving for p, Initial residual = 0.283876738635732, Final residual = 0.00145259536876511, No Iterations 4
GAMG:  Solving for p, Initial residual = 0.0235794569244312, Final residual = 0.000160141310154998, No Iterations 3
GAMG:  Solving for p, Initial residual = 0.00198497497050252, Final residual = 1.87372427208165e-05, No Iterations 4
GAMG:  Solving for p, Initial residual = 0.000327191094222511, Final residual = 2.37500681000915e-06, No Iterations 5
GAMG:  Solving for p, Initial residual = 7.80176366110952e-05, Final residual = 7.62241686197759e-07, No Iterations 4
GAMG:  Solving for p, Initial residual = 2.17007918755863e-05, Final residual = 1.8735906208914e-07, No Iterations 5
time step continuity errors : sum local = 1.26399931227077e-06, global = 2.54879851122444e-08, cumulative = -2.70505128517255e-05
smoothSolver:  Solving for omega, Initial residual = 0.00310282314753158, Final residual = 0.000306801027441115, No Iterations 2
smoothSolver:  Solving for k, Initial residual = 0.0198015455401369, Final residual = 0.00172494690291896, No Iterations 2
ExecutionTime = 4.56 s  ClockTime = 4 s

Time = 28

smoothSolver:  Solving for Ux, Initial residual = 0.0332245963350318, Final residual = 0.00181690338019238, No Iterations 2
smoothSolver:  Solving for Uy, Initial residual = 0.0418711259413425, Final residual = 0.00178701375422186, No Iterations 2
smoothSolver:  Solving for Uz, Initial residual = 0.0939654165744051, Final residual = 0.00462835272229308, No Iterations 2
GAMG:  Solving for p, Initial residual = 0.41198975129202, Final residual = 0.0020980301133773, No Iterations 4
GAMG:  Solving for p, Initial residual = 0.0176784691892674, Final residual = 0.000126664845817234, No Iterations 3
GAMG:  Solving for p, Initial residual = 0.00152345701306982, Final residual = 1.48867011129266e-05, No Iterations 4
GAMG:  Solving for p, Initial residual = 0.000253925540984564, Final residual = 1.99255312371179e-06, No Iterations 5
GAMG:  Solving for p, Initial residual = 5.97771752062393e-05, Final residual = 5.51554004692966e-07, No Iterations 4
GAMG:  Solving for p, Initial residual = 1.62607537208831e-05, Final residual = 1.58244425551153e-07, No Iterations 4
time step continuity errors : sum local = 1.26639897137839e-06, global = 1.15592846039686e-08, cumulative = -2.70389535671216e-05
smoothSolver:  Solving for omega, Initial residual = 0.00305190074640313, Final residual = 0.000125221194779528, No Iterations 3
smoothSolver:  Solving for k, Initial residual = 0.0178135091484701, Final residual = 0.00157898613063649, No Iterations 2
ExecutionTime = 4.73 s  ClockTime = 5 s

Time = 29

smoothSolver:  Solving for Ux, Initial residual = 0.0324244299594144, Final residual = 0.00167054629613405, No Iterations 2
smoothSolver:  Solving for Uy, Initial residual = 0.0414250992050607, Final residual = 0.00176761610265084, No Iterations 2
smoothSolver:  Solving for Uz, Initial residual = 0.0948205923273334, Final residual = 0.00484032432772096, No Iterations 2
GAMG:  Solving for p, Initial residual = 0.451834531846703, Final residual = 0.00411700293077051, No Iterations 3
GAMG:  Solving for p, Initial residual = 0.027506705116616, Final residual = 0.000207506810627106, No Iterations 4
GAMG:  Solving for p, Initial residual = 0.00259872200203888, Final residual = 2.09157714448472e-05, No Iterations 5
GAMG:  Solving for p, Initial residual = 0.000410258128733954, Final residual = 3.69552920577432e-06, No Iterations 5
GAMG:  Solving for p, Initial residual = 9.90944590456131e-05, Final residual = 7.70018778973048e-07, No Iterations 5
GAMG:  Solving for p, Initial residual = 2.73228799186389e-05, Final residual = 1.88556460378491e-07, No Iterations 5
time step continuity errors : sum local = 7.67071658122105e-07, global = 5.56000705398161e-09, cumulative = -2.70333935600676e-05
smoothSolver:  Solving for omega, Initial residual = 0.00291655391449216, Final residual = 0.000122929670547625, No Iterations 3
smoothSolver:  Solving for k, Initial residual = 0.0160759954676934, Final residual = 0.00143608034498924, No Iterations 2
ExecutionTime = 4.9 s  ClockTime = 5 s

Time = 30

smoothSolver:  Solving for Ux, Initial residual = 0.0317060057697878, Final residual = 0.00167038229329375, No Iterations 2
smoothSolver:  Solving for Uy, Initial residual = 0.0410347482565878, Final residual = 0.00180808792386135, No Iterations 2
smoothSolver:  Solving for Uz, Initial residual = 0.0950740478389554, Final residual = 0.00496940678457266, No Iterations 2
GAMG:  Solving for p, Initial residual = 0.431051300636593, Final residual = 0.00198558059585889, No Iterations 4
GAMG:  Solving for p, Initial residual = 0.0201421658553934, Final residual = 0.000170551596653532, No Iterations 3
GAMG:  Solving for p, Initial residual = 0.00192006859428795, Final residual = 1.5923482974385e-05, No Iterations 5
GAMG:  Solving for p, Initial residual = 0.000316970143442269, Final residual = 2.85580948840335e-06, No Iterations 5
GAMG:  Solving for p, Initial residual = 7.36007626712433e-05, Final residual = 6.62111826920301e-07, No Iterations 5
GAMG:  Solving for p, Initial residual = 1.97337668230707e-05, Final residual = 1.59853719014785e-07, No Iterations 5
time step continuity errors : sum local = 9.22586247020409e-07, global = -2.14083498953029e-08, cumulative = -2.70548019099629e-05
smoothSolver:  Solving for omega, Initial residual = 0.00283734118772497, Final residual = 0.000122754584931744, No Iterations 3
smoothSolver:  Solving for k, Initial residual = 0.0147637599723011, Final residual = 0.00131800487417883, No Iterations 2
ExecutionTime = 5.08 s  ClockTime = 5 s

Time = 31

smoothSolver:  Solving for Ux, Initial residual = 0.0307247073030251, Final residual = 0.00172754780637062, No Iterations 2
smoothSolver:  Solving for Uy, Initial residual = 0.0395818623237349, Final residual = 0.0018456015286124, No Iterations 2
smoothSolver:  Solving for Uz, Initial residual = 0.0913838083738014, Final residual = 0.00486538099573263, No Iterations 2
GAMG:  Solving for p, Initial residual = 0.493621301622917, Final residual = 0.00488642951366927, No Iterations 3
GAMG:  Solving for p, Initial residual = 0.0173516576168645, Final residual = 0.000102370820385239, No Iterations 4
GAMG:  Solving for p, Initial residual = 0.00175588456582423, Final residual = 1.37094698141948e-05, No Iterations 4
GAMG:  Solving for p, Initial residual = 0.000275418847394922, Final residual = 2.09925192006806e-06, No Iterations 5
GAMG:  Solving for p, Initial residual = 6.63494994423944e-05, Final residual = 4.69391404719267e-07, No Iterations 5
GAMG:  Solving for p, Initial residual = 1.80944934567068e-05, Final residual = 1.38342074399087e-07, No Iterations 5
time step continuity errors : sum local = 8.30485564199848e-07, global = -1.0072750230303e-08, cumulative = -2.70648746601932e-05
smoothSolver:  Solving for omega, Initial residual = 0.00277127246749232, Final residual = 0.000123390316607138, No Iterations 3
smoothSolver:  Solving for k, Initial residual = 0.0138839056419316, Final residual = 0.00123147646270689, No Iterations 2
ExecutionTime = 5.25 s  ClockTime = 5 s

Time = 32

smoothSolver:  Solving for Ux, Initial residual = 0.0310222632783852, Final residual = 0.00181213603554034, No Iterations 2
smoothSolver:  Solving for Uy, Initial residual = 0.0376341767721397, Final residual = 0.00177807310049613, No Iterations 2
smoothSolver:  Solving for Uz, Initial residual = 0.0833261401542132, Final residual = 0.00439365964654753, No Iterations 2
GAMG:  Solving for p, Initial residual = 0.361888261091458, Final residual = 0.0034922532674576, No Iterations 3
GAMG:  Solving for p, Initial residual = 0.0252148681055879, Final residual = 0.000201714097931897, No Iterations 4
GAMG:  Solving for p, Initial residual = 0.0026054095498936, Final residual = 2.19208146206549e-05, No Iterations 5
GAMG:  Solving for p, Initial residual = 0.000422070893066063, Final residual = 3.80100384321631e-06, No Iterations 5
GAMG:  Solving for p, Initial residual = 0.000100378337290787, Final residual = 8.5169186149825e-07, No Iterations 5
GAMG:  Solving for p, Initial residual = 2.76546191884416e-05, Final residual = 2.33229760716352e-07, No Iterations 5
time step continuity errors : sum local = 8.27960736150217e-07, global = 9.78323146484909e-10, cumulative = -2.70638963370467e-05
smoothSolver:  Solving for omega, Initial residual = 0.00269902395581017, Final residual = 0.000123847612522413, No Iterations 3
smoothSolver:  Solving for k, Initial residual = 0.0133212963639365, Final residual = 0.00118034322032431, No Iterations 2
ExecutionTime = 5.43 s  ClockTime = 5 s

Time = 33

smoothSolver:  Solving for Ux, Initial residual = 0.0300795870111971, Final residual = 0.00176042808962221, No Iterations 2
smoothSolver:  Solving for Uy, Initial residual = 0.0366481653057774, Final residual = 0.00169364438078086, No Iterations 2
smoothSolver:  Solving for Uz, Initial residual = 0.0778266115837239, Final residual = 0.00405603306443638, No Iterations 2
GAMG:  Solving for p, Initial residual = 0.36332338008425, Final residual = 0.00144314758472495, No Iterations 4
GAMG:  Solving for p, Initial residual = 0.0234397916052801, Final residual = 0.00023118584980438, No Iterations 3
GAMG:  Solving for p, Initial residual = 0.00224267903760232, Final residual = 1.61284250030958e-05, No Iterations 6
GAMG:  Solving for p, Initial residual = 0.000390208358088948, Final residual = 3.77078360281758e-06, No Iterations 5
GAMG:  Solving for p, Initial residual = 9.05039782582641e-05, Final residual = 8.55956706111417e-07, No Iterations 5
GAMG:  Solving for p, Initial residual = 2.59121223854442e-05, Final residual = 2.09203170430343e-07, No Iterations 5
time step continuity errors : sum local = 8.00644274404549e-07, global = 7.73302658265774e-09, cumulative = -2.70561633104641e-05
smoothSolver:  Solving for omega, Initial residual = 0.00261441437672872, Final residual = 0.000123478357633229, No Iterations 3
smoothSolver:  Solving for k, Initial residual = 0.0128992022989382, Final residual = 0.00116112398372795, No Iterations 2
ExecutionTime = 5.61 s  ClockTime = 6 s

Time = 34

smoothSolver:  Solving for Ux, Initial residual = 0.0286175604027581, Final residual = 0.00164143726902574, No Iterations 2
smoothSolver:  Solving for Uy, Initial residual = 0.0362698768488958, Final residual = 0.00166602567535565, No Iterations 2
smoothSolver:  Solving for Uz, Initial residual = 0.0781909874078223, Final residual = 0.00410428173585746, No Iterations 2
GAMG:  Solving for p, Initial residual = 0.454703463942961, Final residual = 0.00165153698340486, No Iterations 4
GAMG:  Solving for p, Initial residual = 0.0205002902703519, Final residual = 0.000115224103557018, No Iterations 4
GAMG:  Solving for p, Initial residual = 0.00199240858724363, Final residual = 1.40855842450337e-05, No Iterations 5
GAMG:  Solving for p, Initial residual = 0.000341490712894041, Final residual = 2.7244385965326e-06, No Iterations 5
GAMG:  Solving for p, Initial residual = 8.43823515150383e-05, Final residual = 7.42204428804458e-07, No Iterations 5
GAMG:  Solving for p, Initial residual = 2.49378196977648e-05, Final residual = 2.21243758900139e-07, No Iterations 5
time step continuity errors : sum local = 8.39729281219771e-07, global = 4.48391608647961e-08, cumulative = -2.70113241495993e-05
smoothSolver:  Solving for omega, Initial residual = 0.00252311240475036, Final residual = 0.000122210951323536, No Iterations 3
smoothSolver:  Solving for k, Initial residual = 0.0125434367634565, Final residual = 0.00116489089790818, No Iterations 2
ExecutionTime = 5.79 s  ClockTime = 6 s

Time = 35

smoothSolver:  Solving for Ux, Initial residual = 0.0278547071953564, Final residual = 0.00159203863994217, No Iterations 2
smoothSolver:  Solving for Uy, Initial residual = 0.035694896608682, Final residual = 0.00165802458902661, No Iterations 2
smoothSolver:  Solving for Uz, Initial residual = 0.0793288738529719, Final residual = 0.00420826516021524, No Iterations 2
GAMG:  Solving for p, Initial residual = 0.496685067405375, Final residual = 0.00176087256098183, No Iterations 4
GAMG:  Solving for p, Initial residual = 0.0283238559811368, Final residual = 0.00027916053831624, No Iterations 3
GAMG:  Solving for p, Initial residual = 0.00282923691881919, Final residual = 2.51526509244055e-05, No Iterations 5
GAMG:  Solving for p, Initial residual = 0.000503289447806644, Final residual = 3.86610746593659e-06, No Iterations 5
GAMG:  Solving for p, Initial residual = 0.000121017306333236, Final residual = 1.03008883331134e-06, No Iterations 5
GAMG:  Solving for p, Initial residual = 3.47965409054005e-05, Final residual = 3.06213178801503e-07, No Iterations 5
time step continuity errors : sum local = 7.35889344590571e-07, global = -3.44618653440364e-09, cumulative = -2.70147703361337e-05
smoothSolver:  Solving for omega, Initial residual = 0.0024256985717812, Final residual = 0.000120368425915905, No Iterations 3
smoothSolver:  Solving for k, Initial residual = 0.0122110740702061, Final residual = 0.00117924191001593, No Iterations 2
ExecutionTime = 5.98 s  ClockTime = 6 s

Time = 36

smoothSolver:  Solving for Ux, Initial residual = 0.0269373534152221, Final residual = 0.00158454962980764, No Iterations 2
smoothSolver:  Solving for Uy, Initial residual = 0.0346867018449741, Final residual = 0.00164234992929336, No Iterations 2
smoothSolver:  Solving for Uz, Initial residual = 0.0775002267983272, Final residual = 0.00417885806656231, No Iterations 2
GAMG:  Solving for p, Initial residual = 0.495398434145074, Final residual = 0.00488129193735608, No Iterations 3
GAMG:  Solving for p, Initial residual = 0.0224463386206626, Final residual = 0.000179015666251603, No Iterations 4
GAMG:  Solving for p, Initial residual = 0.00233832704277673, Final residual = 1.88217423731921e-05, No Iterations 5
GAMG:  Solving for p, Initial residual = 0.000383439332336461, Final residual = 3.39363741787391e-06, No Iterations 5
GAMG:  Solving for p, Initial residual = 9.54702801626935e-05, Final residual = 7.77030880300748e-07, No Iterations 5
GAMG:  Solving for p, Initial residual = 2.66537983622384e-05, Final residual = 2.298834324031e-07, No Iterations 5
time step continuity errors : sum local = 7.31821150267257e-07, global = -7.48866035752074e-09, cumulative = -2.70222589964912e-05
smoothSolver:  Solving for omega, Initial residual = 0.00232440299684925, Final residual = 0.000118227717220945, No Iterations 3
smoothSolver:  Solving for k, Initial residual = 0.0118785196406796, Final residual = 0.000444128322368148, No Iterations 3
ExecutionTime = 6.15 s  ClockTime = 6 s

Time = 37

smoothSolver:  Solving for Ux, Initial residual = 0.0263446218974961, Final residual = 0.00157547619798506, No Iterations 2
smoothSolver:  Solving for Uy, Initial residual = 0.033478137893008, Final residual = 0.00159718354604742, No Iterations 2
smoothSolver:  Solving for Uz, Initial residual = 0.0716738707510681, Final residual = 0.00393130076402024, No Iterations 2
GAMG:  Solving for p, Initial residual = 0.465498256330915, Final residual = 0.00452412472499615, No Iterations 3
GAMG:  Solving for p, Initial residual = 0.0225487084825493, Final residual = 0.000200651517353801, No Iterations 4
GAMG:  Solving for p, Initial residual = 0.00240114217042706, Final residual = 2.14175544877828e-05, No Iterations 5
GAMG:  Solving for p, Initial residual = 0.000397795024740472, Final residual = 3.59111813915898e-06, No Iterations 5
GAMG:  Solving for p, Initial residual = 9.87529476172834e-05, Final residual = 7.85670900069611e-07, No Iterations 5
GAMG:  Solving for p, Initial residual = 2.81637959949024e-05, Final residual = 2.00363647208618e-07, No Iterations 5
time step continuity errors : sum local = 5.86417482382751e-07, global = -2.14340422992014e-09, cumulative = -2.70244024007211e-05
smoothSolver:  Solving for omega, Initial residual = 0.00223320956849673, Final residual = 0.000116284941728801, No Iterations 3
smoothSolver:  Solving for k, Initial residual = 0.0114878732262619, Final residual = 0.000459762853179396, No Iterations 3
ExecutionTime = 6.33 s  ClockTime = 6 s

Time = 38

smoothSolver:  Solving for Ux, Initial residual = 0.0258498758871979, Final residual = 0.0015535952497164, No Iterations 2
smoothSolver:  Solving for Uy, Initial residual = 0.032375055726019, Final residual = 0.00155685979841181, No Iterations 2
smoothSolver:  Solving for Uz, Initial residual = 0.0651828614407037, Final residual = 0.00361154562335698, No Iterations 2
GAMG:  Solving for p, Initial residual = 0.421100015862584, Final residual = 0.001543366380726, No Iterations 4
GAMG:  Solving for p, Initial residual = 0.0273349997647495, Final residual = 0.00017653770298499, No Iterations 4
GAMG:  Solving for p, Initial residual = 0.00266116267883511, Final residual = 2.05115540773068e-05, No Iterations 5
GAMG:  Solving for p, Initial residual = 0.000463112122453234, Final residual = 3.67660475215341e-06, No Iterations 5
GAMG:  Solving for p, Initial residual = 0.000118921356066084, Final residual = 7.99066088861814e-07, No Iterations 5
GAMG:  Solving for p, Initial residual = 3.44832258844854e-05, Final residual = 3.23841575300056e-07, No Iterations 4
time step continuity errors : sum local = 6.92219099692843e-07, global = 7.34304369485677e-09, cumulative = -2.70170593570262e-05
smoothSolver:  Solving for omega, Initial residual = 0.0021406460354204, Final residual = 0.000113923861963074, No Iterations 3
smoothSolver:  Solving for k, Initial residual = 0.0112012413022319, Final residual = 0.000475147719449173, No Iterations 3
ExecutionTime = 6.5 s  ClockTime = 6 s

Time = 39

smoothSolver:  Solving for Ux, Initial residual = 0.0248141850326132, Final residual = 0.00149954936172539, No Iterations 2
smoothSolver:  Solving for Uy, Initial residual = 0.0316217280317514, Final residual = 0.00154180943192304, No Iterations 2
smoothSolver:  Solving for Uz, Initial residual = 0.0633190024223294, Final residual = 0.00356642468642343, No Iterations 2
GAMG:  Solving for p, Initial residual = 0.442071320388332, Final residual = 0.00153312804993142, No Iterations 4
GAMG:  Solving for p, Initial residual = 0.0207024244906559, Final residual = 0.000116262901554434, No Iterations 4
GAMG:  Solving for p, Initial residual = 0.0019764919290921, Final residual = 1.36264683280101e-05, No Iterations 5
GAMG:  Solving for p, Initial residual = 0.000347374432459904, Final residual = 2.35605817781645e-06, No Iterations 5
GAMG:  Solving for p, Initial residual = 8.86584457080623e-05, Final residual = 7.43169726470514e-07, No Iterations 4
GAMG:  Solving for p, Initial residual = 2.62384238570777e-05, Final residual = 2.3200515668818e-07, No Iterations 4
time step continuity errors : sum local = 6.09039922013812e-07, global = 1.38062707126262e-08, cumulative = -2.70032530863136e-05
smoothSolver:  Solving for omega, Initial residual = 0.00204673058564432, Final residual = 0.000111359690984411, No Iterations 3
smoothSolver:  Solving for k, Initial residual = 0.0110002349017546, Final residual = 0.000487354984969166, No Iterations 3
ExecutionTime = 6.67 s  ClockTime = 7 s

Time = 40

smoothSolver:  Solving for Ux, Initial residual = 0.0236175599541264, Final residual = 0.00143131274404636, No Iterations 2
smoothSolver:  Solving for Uy, Initial residual = 0.0307663614848269, Final residual = 0.00152362982285721, No Iterations 2
smoothSolver:  Solving for Uz, Initial residual = 0.0650929163930691, Final residual = 0.00374818583331479, No Iterations 2
GAMG:  Solving for p, Initial residual = 0.489753926062204, Final residual = 0.00191832051952664, No Iterations 4
GAMG:  Solving for p, Initial residual = 0.0199140587513666, Final residual = 0.000120529883250751, No Iterations 4
GAMG:  Solving for p, Initial residual = 0.00197312774084622, Final residual = 1.46275194038986e-05, No Iterations 5
GAMG:  Solving for p, Initial residual = 0.000358652521342403, Final residual = 2.73132335399854e-06, No Iterations 5
GAMG:  Solving for p, Initial residual = 9.25889881805279e-05, Final residual = 6.7603580322039e-07, No Iterations 5
GAMG:  Solving for p, Initial residual = 2.74119044159734e-05, Final residual = 1.99620999768349e-07, No Iterations 5
time step continuity errors : sum local = 4.8992565746612e-07, global = 2.93954888066164e-08, cumulative = -2.6973857597507e-05
smoothSolver:  Solving for omega, Initial residual = 0.00195251596256412, Final residual = 0.000109011876893126, No Iterations 3
smoothSolver:  Solving for k, Initial residual = 0.0108200033821122, Final residual = 0.000496386828282721, No Iterations 3
ExecutionTime = 6.86 s  ClockTime = 7 s

Time = 41

smoothSolver:  Solving for Ux, Initial residual = 0.0226498114099204, Final residual = 0.0013792499255646, No Iterations 2
smoothSolver:  Solving for Uy, Initial residual = 0.029764342673168, Final residual = 0.00147310671820863, No Iterations 2
smoothSolver:  Solving for Uz, Initial residual = 0.0660385824924172, Final residual = 0.00386173546108609, No Iterations 2
GAMG:  Solving for p, Initial residual = 0.438849431606786, Final residual = 0.0018326958068846, No Iterations 4
GAMG:  Solving for p, Initial residual = 0.0228682124767862, Final residual = 0.000159853841267195, No Iterations 4
GAMG:  Solving for p, Initial residual = 0.00237963568748032, Final residual = 1.95549445397062e-05, No Iterations 5
GAMG:  Solving for p, Initial residual = 0.000437239477470196, Final residual = 3.79102031155052e-06, No Iterations 5
GAMG:  Solving for p, Initial residual = 0.000115652761300358, Final residual = 9.37071703935357e-07, No Iterations 5
GAMG:  Solving for p, Initial residual = 3.42762802610912e-05, Final residual = 2.84118316348576e-07, No Iterations 5
time step continuity errors : sum local = 5.54767467477376e-07, global = -3.30832533805916e-08, cumulative = -2.70069408508876e-05
smoothSolver:  Solving for omega, Initial residual = 0.00186249694383731, Final residual = 0.000106617056203577, No Iterations 3
smoothSolver:  Solving for k, Initial residual = 0.0106157707148784, Final residual = 0.000503676259620059, No Iterations 3
ExecutionTime = 7.04 s  ClockTime = 7 s

Time = 42

smoothSolver:  Solving for Ux, Initial residual = 0.021696428074281, Final residual = 0.00134047467428202, No Iterations 2
smoothSolver:  Solving for Uy, Initial residual = 0.0288035734926821, Final residual = 0.00142950971679746, No Iterations 2
smoothSolver:  Solving for Uz, Initial residual = 0.0642416959049938, Final residual = 0.00380235785756623, No Iterations 2
GAMG:  Solving for p, Initial residual = 0.434203436004143, Final residual = 0.00169158585860793, No Iterations 4
GAMG:  Solving for p, Initial residual = 0.0238951202990231, Final residual = 0.000157866735525921, No Iterations 4
GAMG:  Solving for p, Initial residual = 0.00239937054186766, Final residual = 2.25282828153702e-05, No Iterations 5
GAMG:  Solving for p, Initial residual = 0.000452563608871659, Final residual = 3.64123698316973e-06, No Iterations 6
GAMG:  Solving for p, Initial residual = 0.000123122266380352, Final residual = 1.01953780073568e-06, No Iterations 6
GAMG:  Solving for p, Initial residual = 3.76606235268283e-05, Final residual = 3.37685973737281e-07, No Iterations 6
time step continuity errors : sum local = 6.06515612466663e-07, global = -2.26181629240747e-08, cumulative = -2.70295590138117e-05
smoothSolver:  Solving for omega, Initial residual = 0.00177584143909007, Final residual = 0.000103949862674732, No Iterations 3
smoothSolver:  Solving for k, Initial residual = 0.0103897312121807, Final residual = 0.000506829926355308, No Iterations 3
ExecutionTime = 7.24 s  ClockTime = 7 s

Time = 43

smoothSolver:  Solving for Ux, Initial residual = 0.0209507956849105, Final residual = 0.00131157026887589, No Iterations 2
smoothSolver:  Solving for Uy, Initial residual = 0.0281726032033709, Final residual = 0.00143226395762606, No Iterations 2
smoothSolver:  Solving for Uz, Initial residual = 0.0605789629348566, Final residual = 0.00360882915807568, No Iterations 2
GAMG:  Solving for p, Initial residual = 0.448521607393968, Final residual = 0.00188786463297875, No Iterations 4
GAMG:  Solving for p, Initial residual = 0.0231315265288373, Final residual = 0.000157046724732668, No Iterations 4
GAMG:  Solving for p, Initial residual = 0.00236188786482634, Final residual = 1.92344703812871e-05, No Iterations 5
GAMG:  Solving for p, Initial residual = 0.00044929154016044, Final residual = 3.98789185377224e-06, No Iterations 5
GAMG:  Solving for p, Initial residual = 0.000117592074473691, Final residual = 1.13579942519217e-06, No Iterations 5
GAMG:  Solving for p, Initial residual = 3.72382837827864e-05, Final residual = 3.6608226756377e-07, No Iterations 5
time step continuity errors : sum local = 6.32154017763851e-07, global = -9.7843097194593e-09, cumulative = -2.70393433235311e-05
smoothSolver:  Solving for omega, Initial residual = 0.00169470382922448, Final residual = 0.000101109639686791, No Iterations 3
smoothSolver:  Solving for k, Initial residual = 0.0101219611312527, Final residual = 0.000506612206462345, No Iterations 3
ExecutionTime = 7.42 s  ClockTime = 7 s

Time = 44

smoothSolver:  Solving for Ux, Initial residual = 0.0201269748756315, Final residual = 0.00127493807564586, No Iterations 2
smoothSolver:  Solving for Uy, Initial residual = 0.0276334283486572, Final residual = 0.00140617344893777, No Iterations 2
smoothSolver:  Solving for Uz, Initial residual = 0.0578004786143488, Final residual = 0.00336673068494764, No Iterations 2
GAMG:  Solving for p, Initial residual = 0.443223908707332, Final residual = 0.00178140468753339, No Iterations 4
GAMG:  Solving for p, Initial residual = 0.0195655936299991, Final residual = 0.000129347928974759, No Iterations 4
GAMG:  Solving for p, Initial residual = 0.0019308878116385, Final residual = 1.35605258174771e-05, No Iterations 5
GAMG:  Solving for p, Initial residual = 0.00035770678092035, Final residual = 3.37312145813909e-06, No Iterations 4
GAMG:  Solving for p, Initial residual = 9.3741091772952e-05, Final residual = 7.22901739486504e-07, No Iterations 5
GAMG:  Solving for p, Initial residual = 2.90493231813844e-05, Final residual = 2.12804733246872e-07, No Iterations 5
time step continuity errors : sum local = 4.19821592469222e-07, global = 5.9151631570733e-09, cumulative = -2.70334281603741e-05
smoothSolver:  Solving for omega, Initial residual = 0.00161817635557532, Final residual = 9.82110083060926e-05, No Iterations 3
smoothSolver:  Solving for k, Initial residual = 0.00981881979539834, Final residual = 0.000505324521147104, No Iterations 3
ExecutionTime = 7.6 s  ClockTime = 8 s

Time = 45

smoothSolver:  Solving for Ux, Initial residual = 0.019134159642157, Final residual = 0.00122134077150364, No Iterations 2
smoothSolver:  Solving for Uy, Initial residual = 0.0269210708343392, Final residual = 0.00133092270743731, No Iterations 2
smoothSolver:  Solving for Uz, Initial residual = 0.0572830773123894, Final residual = 0.00325632373613121, No Iterations 2
GAMG:  Solving for p, Initial residual = 0.408495441169145, Final residual = 0.00150501462601351, No Iterations 4
GAMG:  Solving for p, Initial residual = 0.0171487497378668, Final residual = 0.000113100523266107, No Iterations 4
GAMG:  Solving for p, Initial residual = 0.0017255380537723, Final residual = 1.30704342967939e-05, No Iterations 5
GAMG:  Solving for p, Initial residual = 0.000327448166692882, Final residual = 3.20738571628527e-06, No Iterations 4
GAMG:  Solving for p, Initial residual = 8.64749056751852e-05, Final residual = 6.41931504378619e-07, No Iterations 5
GAMG:  Solving for p, Initial residual = 2.7277164669058e-05, Final residual = 2.53891201864298e-07, No Iterations 4
time step continuity errors : sum local = 5.24493035542946e-07, global = 9.96811777867761e-09, cumulative = -2.70234600425954e-05
smoothSolver:  Solving for omega, Initial residual = 0.00154670625130454, Final residual = 9.5289487497188e-05, No Iterations 3
smoothSolver:  Solving for k, Initial residual = 0.00949573127426328, Final residual = 0.000502481246450793, No Iterations 3
ExecutionTime = 7.77 s  ClockTime = 8 s

Time = 46

smoothSolver:  Solving for Ux, Initial residual = 0.0181810946792445, Final residual = 0.00116290321017847, No Iterations 2
smoothSolver:  Solving for Uy, Initial residual = 0.0260033492529922, Final residual = 0.00125453066637059, No Iterations 2
smoothSolver:  Solving for Uz, Initial residual = 0.0581683326747317, Final residual = 0.00327544028903561, No Iterations 2
GAMG:  Solving for p, Initial residual = 0.370217059043262, Final residual = 0.00155538089865859, No Iterations 4
GAMG:  Solving for p, Initial residual = 0.0168317707559896, Final residual = 0.000123203341527743, No Iterations 4
GAMG:  Solving for p, Initial residual = 0.00173670394671082, Final residual = 1.46170702787437e-05, No Iterations 5
GAMG:  Solving for p, Initial residual = 0.000335608447156027, Final residual = 2.61104420037147e-06, No Iterations 5
GAMG:  Solving for p, Initial residual = 8.78957526829738e-05, Final residual = 6.10629320394694e-07, No Iterations 5
GAMG:  Solving for p, Initial residual = 2.79604728138823e-05, Final residual = 2.58032142852255e-07, No Iterations 4
time step continuity errors : sum local = 4.97236896788687e-07, global = 3.65254752289285e-08, cumulative = -2.69869345673664e-05
smoothSolver:  Solving for omega, Initial residual = 0.001476702982874, Final residual = 9.24016754653372e-05, No Iterations 3
smoothSolver:  Solving for k, Initial residual = 0.00915876848093581, Final residual = 0.000495999268109819, No Iterations 3
ExecutionTime = 7.96 s  ClockTime = 8 s

Time = 47

smoothSolver:  Solving for Ux, Initial residual = 0.017297867753754, Final residual = 0.00111373236501975, No Iterations 2
smoothSolver:  Solving for Uy, Initial residual = 0.0250517405872088, Final residual = 0.00122493099731294, No Iterations 2
smoothSolver:  Solving for Uz, Initial residual = 0.0583685221157798, Final residual = 0.00327101870366901, No Iterations 2
GAMG:  Solving for p, Initial residual = 0.351188943820651, Final residual = 0.00160487654898121, No Iterations 4
GAMG:  Solving for p, Initial residual = 0.0174284427496282, Final residual = 0.000140671222792418, No Iterations 4
GAMG:  Solving for p, Initial residual = 0.00187320188542385, Final residual = 1.63269680205713e-05, No Iterations 5
GAMG:  Solving for p, Initial residual = 0.000352732886073357, Final residual = 2.66374671757142e-06, No Iterations 5
GAMG:  Solving for p, Initial residual = 9.26150211363567e-05, Final residual = 9.16815576818134e-07, No Iterations 4
GAMG:  Solving for p, Initial residual = 2.87267177533567e-05, Final residual = 2.08536640122871e-07, No Iterations 5
time step continuity errors : sum local = 3.56746191882716e-07, global = -4.39791959377966e-09, cumulative = -2.69913324869602e-05
smoothSolver:  Solving for omega, Initial residual = 0.0014108917884899, Final residual = 8.95631111892325e-05, No Iterations 3
smoothSolver:  Solving for k, Initial residual = 0.0088307434714335, Final residual = 0.000488637268770621, No Iterations 3
ExecutionTime = 8.13 s  ClockTime = 8 s

Time = 48

smoothSolver:  Solving for Ux, Initial residual = 0.0164909546111378, Final residual = 0.00107332050268954, No Iterations 2
smoothSolver:  Solving for Uy, Initial residual = 0.024387179867046, Final residual = 0.00120849725619976, No Iterations 2
smoothSolver:  Solving for Uz, Initial residual = 0.0564407435011775, Final residual = 0.00312262472549505, No Iterations 2
GAMG:  Solving for p, Initial residual = 0.346224795394488, Final residual = 0.00158058553783575, No Iterations 4
GAMG:  Solving for p, Initial residual = 0.017342150440208, Final residual = 0.000138631053980005, No Iterations 4
GAMG:  Solving for p, Initial residual = 0.00184967924381768, Final residual = 1.57518955242953e-05, No Iterations 5
GAMG:  Solving for p, Initial residual = 0.000344118296877273, Final residual = 2.65530885999361e-06, No Iterations 5
GAMG:  Solving for p, Initial residual = 9.12169619703737e-05, Final residual = 6.54458648039043e-07, No Iterations 5
GAMG:  Solving for p, Initial residual = 2.81101604608575e-05, Final residual = 2.68911015319363e-07, No Iterations 4
time step continuity errors : sum local = 4.31614864523286e-07, global = -5.34806055838826e-09, cumulative = -2.69966805475186e-05
smoothSolver:  Solving for omega, Initial residual = 0.00134639960463192, Final residual = 8.6672823044476e-05, No Iterations 3
smoothSolver:  Solving for k, Initial residual = 0.00851436751173536, Final residual = 0.000481871053304133, No Iterations 3
ExecutionTime = 8.32 s  ClockTime = 8 s

Time = 49

smoothSolver:  Solving for Ux, Initial residual = 0.0158735009401909, Final residual = 0.00103393291049401, No Iterations 2
smoothSolver:  Solving for Uy, Initial residual = 0.0239760574774863, Final residual = 0.00119588787425521, No Iterations 2
smoothSolver:  Solving for Uz, Initial residual = 0.0533544760505123, Final residual = 0.00285425945430563, No Iterations 2
GAMG:  Solving for p, Initial residual = 0.343899015148793, Final residual = 0.00158607117846968, No Iterations 4
GAMG:  Solving for p, Initial residual = 0.0162814527860241, Final residual = 0.000131555509490147, No Iterations 4
GAMG:  Solving for p, Initial residual = 0.00166550695086004, Final residual = 1.31143294877059e-05, No Iterations 5
GAMG:  Solving for p, Initial residual = 0.000308129931035926, Final residual = 2.23206016209801e-06, No Iterations 5
GAMG:  Solving for p, Initial residual = 8.1510605801551e-05, Final residual = 8.05913617369837e-07, No Iterations 4
GAMG:  Solving for p, Initial residual = 2.56074130271193e-05, Final residual = 2.21569856632196e-07, No Iterations 5
time step continuity errors : sum local = 3.65101323546329e-07, global = -5.57909569520028e-10, cumulative = -2.69972384570881e-05
smoothSolver:  Solving for omega, Initial residual = 0.0012864582016535, Final residual = 8.38821146796306e-05, No Iterations 3
smoothSolver:  Solving for k, Initial residual = 0.00822012869050341, Final residual = 0.000476284773999908, No Iterations 3
ExecutionTime = 8.5 s  ClockTime = 8 s

Time = 50

smoothSolver:  Solving for Ux, Initial residual = 0.0152966936717194, Final residual = 0.000992183036661135, No Iterations 2
smoothSolver:  Solving for Uy, Initial residual = 0.0234380718094095, Final residual = 0.00116626624620292, No Iterations 2
smoothSolver:  Solving for Uz, Initial residual = 0.0504663241492957, Final residual = 0.00261911831655831, No Iterations 2
GAMG:  Solving for p, Initial residual = 0.332171042114626, Final residual = 0.00147860707343482, No Iterations 4
GAMG:  Solving for p, Initial residual = 0.014760599069535, Final residual = 0.000112370599828862, No Iterations 4
GAMG:  Solving for p, Initial residual = 0.00144862644996463, Final residual = 1.07671894668948e-05, No Iterations 5
GAMG:  Solving for p, Initial residual = 0.000267360173707496, Final residual = 1.78882885495293e-06, No Iterations 5
GAMG:  Solving for p, Initial residual = 7.02925307410948e-05, Final residual = 6.45219990939071e-07, No Iterations 4
GAMG:  Solving for p, Initial residual = 2.20314367919493e-05, Final residual = 1.60930308750422e-07, No Iterations 5
time step continuity errors : sum local = 2.78750306802061e-07, global = 5.0690582719033e-09, cumulative = -2.69921693988162e-05
smoothSolver:  Solving for omega, Initial residual = 0.0012311484088219, Final residual = 8.11623565275148e-05, No Iterations 3
smoothSolver:  Solving for k, Initial residual = 0.00795236813983857, Final residual = 0.000469769993896065, No Iterations 3
ExecutionTime = 8.67 s  ClockTime = 9 s

Time = 51

smoothSolver:  Solving for Ux, Initial residual = 0.0146684070820424, Final residual = 0.000949543062935313, No Iterations 2
smoothSolver:  Solving for Uy, Initial residual = 0.022497079847569, Final residual = 0.00112228825442913, No Iterations 2
smoothSolver:  Solving for Uz, Initial residual = 0.0486234611723351, Final residual = 0.0025089173720696, No Iterations 2
GAMG:  Solving for p, Initial residual = 0.312828836053648, Final residual = 0.0014070146522061, No Iterations 4
GAMG:  Solving for p, Initial residual = 0.0135803927315473, Final residual = 0.000104902473218039, No Iterations 4
GAMG:  Solving for p, Initial residual = 0.00133194680240998, Final residual = 1.05749331612145e-05, No Iterations 5
GAMG:  Solving for p, Initial residual = 0.000248242803512108, Final residual = 1.84528744466204e-06, No Iterations 5
GAMG:  Solving for p, Initial residual = 6.51436071973271e-05, Final residual = 4.62246767473538e-07, No Iterations 5
GAMG:  Solving for p, Initial residual = 2.03097530383074e-05, Final residual = 1.51776422878096e-07, No Iterations 5
time step continuity errors : sum local = 2.64102070346483e-07, global = 9.49400063862679e-09, cumulative = -2.69826753981776e-05
smoothSolver:  Solving for omega, Initial residual = 0.00117927545621258, Final residual = 7.84180004951469e-05, No Iterations 3
smoothSolver:  Solving for k, Initial residual = 0.0076995330614023, Final residual = 0.000462504030265816, No Iterations 3
ExecutionTime = 8.85 s  ClockTime = 9 s

Time = 52

smoothSolver:  Solving for Ux, Initial residual = 0.0139982129512339, Final residual = 0.0009061717764173, No Iterations 2
smoothSolver:  Solving for Uy, Initial residual = 0.0214437863019146, Final residual = 0.00106109814050918, No Iterations 2
smoothSolver:  Solving for Uz, Initial residual = 0.0475991505825485, Final residual = 0.00247083008290328, No Iterations 2
GAMG:  Solving for p, Initial residual = 0.294410502314255, Final residual = 0.00147835651054411, No Iterations 4
GAMG:  Solving for p, Initial residual = 0.0134423712681912, Final residual = 0.000127326881370121, No Iterations 4
GAMG:  Solving for p, Initial residual = 0.00139182960416281, Final residual = 1.27015224719697e-05, No Iterations 5
GAMG:  Solving for p, Initial residual = 0.00025489514348585, Final residual = 2.18105616918966e-06, No Iterations 5
[...]
ExecutionTime = 57.69 s  ClockTime = 58 s

Time = 314

smoothSolver:  Solving for Ux, Initial residual = 0.000140030785332355, Final residual = 9.21061354489679e-06, No Iterations 2
smoothSolver:  Solving for Uy, Initial residual = 0.000209273636516522, Final residual = 1.46164351184736e-05, No Iterations 2
smoothSolver:  Solving for Uz, Initial residual = 0.000390921727289919, Final residual = 2.48185375762221e-05, No Iterations 2
GAMG:  Solving for p, Initial residual = 0.00122247612537199, Final residual = 1.01973169994784e-05, No Iterations 5
GAMG:  Solving for p, Initial residual = 8.45418322432375e-05, Final residual = 6.89756353857194e-07, No Iterations 6
GAMG:  Solving for p, Initial residual = 1.45930422160865e-05, Final residual = 1.27993438916869e-07, No Iterations 5
GAMG:  Solving for p, Initial residual = 4.17925191784949e-06, Final residual = 2.94648622060325e-08, No Iterations 5
GAMG:  Solving for p, Initial residual = 1.29282764363398e-06, Final residual = 8.75927328589945e-09, No Iterations 5
GAMG:  Solving for p, Initial residual = 4.60880039891326e-07, Final residual = 6.7844410516518e-09, No Iterations 3
time step continuity errors : sum local = 6.30445802227004e-09, global = -1.15511008136872e-12, cumulative = -2.6916426616147e-05
smoothSolver:  Solving for omega, Initial residual = 1.29416444788471e-05, Final residual = 9.2834881391661e-07, No Iterations 3
smoothSolver:  Solving for k, Initial residual = 8.22102488778128e-05, Final residual = 5.98141630428762e-06, No Iterations 3
ExecutionTime = 57.88 s  ClockTime = 58 s

Time = 315

smoothSolver:  Solving for Ux, Initial residual = 0.000137980166243338, Final residual = 9.08379155953426e-06, No Iterations 2
smoothSolver:  Solving for Uy, Initial residual = 0.000207564440848098, Final residual = 1.45226221091827e-05, No Iterations 2
smoothSolver:  Solving for Uz, Initial residual = 0.000387324872253046, Final residual = 2.4667170177808e-05, No Iterations 2
GAMG:  Solving for p, Initial residual = 0.00120168917498383, Final residual = 9.95841589998069e-06, No Iterations 5
GAMG:  Solving for p, Initial residual = 8.27482617184277e-05, Final residual = 6.72225131069266e-07, No Iterations 6
GAMG:  Solving for p, Initial residual = 1.42957408226926e-05, Final residual = 1.24282682432098e-07, No Iterations 5
GAMG:  Solving for p, Initial residual = 4.11982729803009e-06, Final residual = 2.76590891685402e-08, No Iterations 5
GAMG:  Solving for p, Initial residual = 1.27435325215619e-06, Final residual = 8.35237390357899e-09, No Iterations 5
GAMG:  Solving for p, Initial residual = 4.55110687053771e-07, Final residual = 6.49516103011277e-09, No Iterations 3
time step continuity errors : sum local = 6.03668343797742e-09, global = 1.38432348124821e-11, cumulative = -2.69164127729122e-05
smoothSolver:  Solving for omega, Initial residual = 1.27126637221947e-05, Final residual = 9.08435006752087e-07, No Iterations 3
smoothSolver:  Solving for k, Initial residual = 8.04476304411678e-05, Final residual = 5.84445914778582e-06, No Iterations 3
ExecutionTime = 58.07 s  ClockTime = 58 s

Time = 316

smoothSolver:  Solving for Ux, Initial residual = 0.000135932615922751, Final residual = 8.95503827663693e-06, No Iterations 2
smoothSolver:  Solving for Uy, Initial residual = 0.000205809474705822, Final residual = 1.44267252135577e-05, No Iterations 2
smoothSolver:  Solving for Uz, Initial residual = 0.00038368949359846, Final residual = 2.45168331541554e-05, No Iterations 2
GAMG:  Solving for p, Initial residual = 0.00118090767673031, Final residual = 9.72578728934317e-06, No Iterations 5
GAMG:  Solving for p, Initial residual = 7.98333042813038e-05, Final residual = 6.79454752144762e-07, No Iterations 6
GAMG:  Solving for p, Initial residual = 1.37147645708347e-05, Final residual = 1.25754525790713e-07, No Iterations 5
GAMG:  Solving for p, Initial residual = 3.9579467724162e-06, Final residual = 2.76823409449605e-08, No Iterations 5
GAMG:  Solving for p, Initial residual = 1.23082824095795e-06, Final residual = 1.22714003319957e-08, No Iterations 4
GAMG:  Solving for p, Initial residual = 4.39739583959082e-07, Final residual = 7.52731710555612e-09, No Iterations 3
time step continuity errors : sum local = 6.9972893051366e-09, global = 1.78825683373347e-10, cumulative = -2.69162339472289e-05
smoothSolver:  Solving for omega, Initial residual = 1.24854334382045e-05, Final residual = 8.8989347973093e-07, No Iterations 3
smoothSolver:  Solving for k, Initial residual = 7.87064458690192e-05, Final residual = 5.70715402863119e-06, No Iterations 3
ExecutionTime = 58.25 s  ClockTime = 58 s

Time = 317

smoothSolver:  Solving for Ux, Initial residual = 0.000133907406617273, Final residual = 8.82908809639092e-06, No Iterations 2
smoothSolver:  Solving for Uy, Initial residual = 0.000204109850752074, Final residual = 1.43346043651167e-05, No Iterations 2
smoothSolver:  Solving for Uz, Initial residual = 0.000380044223699571, Final residual = 2.43628584735432e-05, No Iterations 2
GAMG:  Solving for p, Initial residual = 0.00116003012554095, Final residual = 9.58748789476822e-06, No Iterations 5
GAMG:  Solving for p, Initial residual = 7.70394052317286e-05, Final residual = 6.9064873997302e-07, No Iterations 6
GAMG:  Solving for p, Initial residual = 1.32851426523517e-05, Final residual = 1.30042092190691e-07, No Iterations 5
GAMG:  Solving for p, Initial residual = 3.84391340174902e-06, Final residual = 2.87239405553197e-08, No Iterations 5
GAMG:  Solving for p, Initial residual = 1.1981097189884e-06, Final residual = 8.03169549461862e-09, No Iterations 5
GAMG:  Solving for p, Initial residual = 4.27273257695304e-07, Final residual = 6.20778808130067e-09, No Iterations 3
time step continuity errors : sum local = 5.77179513370701e-09, global = 1.84995468889201e-10, cumulative = -2.691604895176e-05
smoothSolver:  Solving for omega, Initial residual = 1.22687551299597e-05, Final residual = 8.74504740889269e-07, No Iterations 3
smoothSolver:  Solving for k, Initial residual = 7.6995548938041e-05, Final residual = 5.57065906043949e-06, No Iterations 3
ExecutionTime = 58.44 s  ClockTime = 58 s

Time = 318

smoothSolver:  Solving for Ux, Initial residual = 0.00013190975259893, Final residual = 8.70327587196558e-06, No Iterations 2
smoothSolver:  Solving for Uy, Initial residual = 0.000202327275710704, Final residual = 1.42468542236892e-05, No Iterations 2
smoothSolver:  Solving for Uz, Initial residual = 0.00037636557146678, Final residual = 2.42100957658539e-05, No Iterations 2
GAMG:  Solving for p, Initial residual = 0.00113911407217988, Final residual = 9.48979456290448e-06, No Iterations 5
GAMG:  Solving for p, Initial residual = 7.4782889387392e-05, Final residual = 6.84305863486893e-07, No Iterations 6
GAMG:  Solving for p, Initial residual = 1.28805680733809e-05, Final residual = 1.24840199134994e-07, No Iterations 5
GAMG:  Solving for p, Initial residual = 3.7294802846792e-06, Final residual = 2.89586665676194e-08, No Iterations 5
GAMG:  Solving for p, Initial residual = 1.16109429039266e-06, Final residual = 7.90386666810843e-09, No Iterations 5
GAMG:  Solving for p, Initial residual = 4.14616200440795e-07, Final residual = 6.146336887945e-09, No Iterations 3
time step continuity errors : sum local = 5.71577902435789e-09, global = 5.32830052749663e-10, cumulative = -2.69155161217072e-05
smoothSolver:  Solving for omega, Initial residual = 1.20604062893411e-05, Final residual = 8.6111365404931e-07, No Iterations 3
smoothSolver:  Solving for k, Initial residual = 7.52874721903043e-05, Final residual = 5.43611853379097e-06, No Iterations 3
ExecutionTime = 58.62 s  ClockTime = 59 s

Time = 319

smoothSolver:  Solving for Ux, Initial residual = 0.000129923004451315, Final residual = 8.57473647887168e-06, No Iterations 2
smoothSolver:  Solving for Uy, Initial residual = 0.000200708438734907, Final residual = 1.41688513605165e-05, No Iterations 2
smoothSolver:  Solving for Uz, Initial residual = 0.000372822608183905, Final residual = 2.40582396358815e-05, No Iterations 2
GAMG:  Solving for p, Initial residual = 0.00111661619319561, Final residual = 9.35458259871523e-06, No Iterations 5
GAMG:  Solving for p, Initial residual = 7.27179422387615e-05, Final residual = 6.59345526393711e-07, No Iterations 6
GAMG:  Solving for p, Initial residual = 1.2432561927834e-05, Final residual = 1.21556505184012e-07, No Iterations 5
GAMG:  Solving for p, Initial residual = 3.5682090644705e-06, Final residual = 2.69565801457797e-08, No Iterations 5
GAMG:  Solving for p, Initial residual = 1.10091416617269e-06, Final residual = 1.05590754392327e-08, No Iterations 4
GAMG:  Solving for p, Initial residual = 3.91124585199128e-07, Final residual = 6.42509234563862e-09, No Iterations 3
time step continuity errors : sum local = 5.97626330474833e-09, global = 9.19161091158608e-10, cumulative = -2.69145969606161e-05
smoothSolver:  Solving for omega, Initial residual = 1.18618169386671e-05, Final residual = 8.47883759475654e-07, No Iterations 3
smoothSolver:  Solving for k, Initial residual = 7.35923366076252e-05, Final residual = 5.30183322087984e-06, No Iterations 3
ExecutionTime = 58.81 s  ClockTime = 59 s

Time = 320

smoothSolver:  Solving for Ux, Initial residual = 0.000127971297987636, Final residual = 8.44611820356186e-06, No Iterations 2
smoothSolver:  Solving for Uy, Initial residual = 0.000199144275821035, Final residual = 1.40943839525604e-05, No Iterations 2
smoothSolver:  Solving for Uz, Initial residual = 0.000369372075430641, Final residual = 2.39107826859409e-05, No Iterations 2
GAMG:  Solving for p, Initial residual = 0.00109513811420395, Final residual = 9.20656629343587e-06, No Iterations 5
GAMG:  Solving for p, Initial residual = 7.09261145687886e-05, Final residual = 6.38943343745111e-07, No Iterations 6
GAMG:  Solving for p, Initial residual = 1.21020526299178e-05, Final residual = 1.18279951059392e-07, No Iterations 5
GAMG:  Solving for p, Initial residual = 3.45839247378573e-06, Final residual = 2.52271502421261e-08, No Iterations 5
GAMG:  Solving for p, Initial residual = 1.06399669973158e-06, Final residual = 1.00390224556813e-08, No Iterations 4
GAMG:  Solving for p, Initial residual = 3.76096530591901e-07, Final residual = 5.91843674186272e-09, No Iterations 3
time step continuity errors : sum local = 5.50582244640418e-09, global = 5.19699746510387e-10, cumulative = -2.69140772608696e-05
smoothSolver:  Solving for omega, Initial residual = 1.16588524306172e-05, Final residual = 8.33330805256302e-07, No Iterations 3
smoothSolver:  Solving for k, Initial residual = 7.192769599496e-05, Final residual = 5.17206602864207e-06, No Iterations 3
ExecutionTime = 58.99 s  ClockTime = 59 s

Time = 321

smoothSolver:  Solving for Ux, Initial residual = 0.000126031625575076, Final residual = 8.31571072000951e-06, No Iterations 2
smoothSolver:  Solving for Uy, Initial residual = 0.000197706061956798, Final residual = 1.4016804661939e-05, No Iterations 2
smoothSolver:  Solving for Uz, Initial residual = 0.000365977249904311, Final residual = 2.37741975518981e-05, No Iterations 2
GAMG:  Solving for p, Initial residual = 0.00107364188164627, Final residual = 9.06355496411103e-06, No Iterations 5
GAMG:  Solving for p, Initial residual = 6.91738045317156e-05, Final residual = 6.30987591965054e-07, No Iterations 6
GAMG:  Solving for p, Initial residual = 1.18133593475696e-05, Final residual = 1.15960940458942e-07, No Iterations 5
GAMG:  Solving for p, Initial residual = 3.3619120398466e-06, Final residual = 2.43723483449235e-08, No Iterations 5
GAMG:  Solving for p, Initial residual = 1.03271173808166e-06, Final residual = 1.00884126998141e-08, No Iterations 4
GAMG:  Solving for p, Initial residual = 3.62166998034256e-07, Final residual = 5.87157845556687e-09, No Iterations 3
time step continuity errors : sum local = 5.46337967691787e-09, global = 3.74070235379313e-10, cumulative = -2.69137031906342e-05
smoothSolver:  Solving for omega, Initial residual = 1.14501585925214e-05, Final residual = 8.17585735298959e-07, No Iterations 3
smoothSolver:  Solving for k, Initial residual = 7.02857745224553e-05, Final residual = 5.04510524244792e-06, No Iterations 3
ExecutionTime = 59.19 s  ClockTime = 59 s

Time = 322

smoothSolver:  Solving for Ux, Initial residual = 0.000124121750660266, Final residual = 8.1870385668355e-06, No Iterations 2
smoothSolver:  Solving for Uy, Initial residual = 0.000196180938933985, Final residual = 1.39392791607997e-05, No Iterations 2
smoothSolver:  Solving for Uz, Initial residual = 0.000362604280201383, Final residual = 2.36390217354227e-05, No Iterations 2
GAMG:  Solving for p, Initial residual = 0.00105315253580114, Final residual = 8.94633279617005e-06, No Iterations 5
GAMG:  Solving for p, Initial residual = 6.74508024614969e-05, Final residual = 6.29836156516617e-07, No Iterations 6
GAMG:  Solving for p, Initial residual = 1.16241047194975e-05, Final residual = 1.14711668704069e-07, No Iterations 5
GAMG:  Solving for p, Initial residual = 3.26932096587986e-06, Final residual = 2.40323390908009e-08, No Iterations 5
GAMG:  Solving for p, Initial residual = 9.93468704024061e-07, Final residual = 6.86319558006426e-09, No Iterations 5
GAMG:  Solving for p, Initial residual = 3.48346092637907e-07, Final residual = 9.08959302842444e-09, No Iterations 2
time step continuity errors : sum local = 8.45912963141676e-09, global = 1.78481668564405e-10, cumulative = -2.69135247089656e-05
smoothSolver:  Solving for omega, Initial residual = 1.12429008180304e-05, Final residual = 8.01961525565491e-07, No Iterations 3
smoothSolver:  Solving for k, Initial residual = 6.86655970806204e-05, Final residual = 4.92303875503576e-06, No Iterations 3
ExecutionTime = 59.37 s  ClockTime = 59 s

Time = 323

smoothSolver:  Solving for Ux, Initial residual = 0.000122245417188884, Final residual = 8.05977895225949e-06, No Iterations 2
smoothSolver:  Solving for Uy, Initial residual = 0.000194691435908345, Final residual = 1.38629826413027e-05, No Iterations 2
smoothSolver:  Solving for Uz, Initial residual = 0.000359365720904121, Final residual = 2.35102109003673e-05, No Iterations 2
GAMG:  Solving for p, Initial residual = 0.00103597537365892, Final residual = 8.87535686537331e-06, No Iterations 5
GAMG:  Solving for p, Initial residual = 6.62119641519776e-05, Final residual = 6.33205876984825e-07, No Iterations 6
GAMG:  Solving for p, Initial residual = 1.13814305493474e-05, Final residual = 7.30327406028199e-08, No Iterations 6
GAMG:  Solving for p, Initial residual = 3.2257040203801e-06, Final residual = 3.06371433994108e-08, No Iterations 4
GAMG:  Solving for p, Initial residual = 9.69861592424405e-07, Final residual = 7.25912359111181e-09, No Iterations 5
GAMG:  Solving for p, Initial residual = 3.47456511667653e-07, Final residual = 9.37278996164579e-09, No Iterations 2
time step continuity errors : sum local = 8.72409388672131e-09, global = 1.58986618450718e-10, cumulative = -2.69133657223472e-05
smoothSolver:  Solving for omega, Initial residual = 1.10376440915899e-05, Final residual = 7.86690661062921e-07, No Iterations 3
smoothSolver:  Solving for k, Initial residual = 6.7095302297611e-05, Final residual = 4.80791836594409e-06, No Iterations 3
ExecutionTime = 59.55 s  ClockTime = 60 s

Time = 324

smoothSolver:  Solving for Ux, Initial residual = 0.000120394156142498, Final residual = 7.93624169026405e-06, No Iterations 2
smoothSolver:  Solving for Uy, Initial residual = 0.000193208918861774, Final residual = 1.3793891342443e-05, No Iterations 2
smoothSolver:  Solving for Uz, Initial residual = 0.00035611931075686, Final residual = 2.33829974676488e-05, No Iterations 2
GAMG:  Solving for p, Initial residual = 0.00102271510998183, Final residual = 8.84547551654173e-06, No Iterations 5
GAMG:  Solving for p, Initial residual = 6.54607597809771e-05, Final residual = 6.44140066702041e-07, No Iterations 6
GAMG:  Solving for p, Initial residual = 1.12423086121562e-05, Final residual = 7.46984856116609e-08, No Iterations 6
GAMG:  Solving for p, Initial residual = 3.19849100028634e-06, Final residual = 3.15142339214996e-08, No Iterations 4
GAMG:  Solving for p, Initial residual = 9.66233581994405e-07, Final residual = 7.40687737379528e-09, No Iterations 5
GAMG:  Solving for p, Initial residual = 3.43490097678876e-07, Final residual = 9.55868662056842e-09, No Iterations 2
time step continuity errors : sum local = 8.89842304432445e-09, global = 1.74761020001474e-10, cumulative = -2.69131909613272e-05
smoothSolver:  Solving for omega, Initial residual = 1.08329245525277e-05, Final residual = 7.71806699566748e-07, No Iterations 3
smoothSolver:  Solving for k, Initial residual = 6.55647415325117e-05, Final residual = 4.70047917870707e-06, No Iterations 3
ExecutionTime = 59.74 s  ClockTime = 60 s

Time = 325

smoothSolver:  Solving for Ux, Initial residual = 0.000118524799229348, Final residual = 7.81554570148292e-06, No Iterations 2
smoothSolver:  Solving for Uy, Initial residual = 0.000191721820546705, Final residual = 1.37277313819688e-05, No Iterations 2
smoothSolver:  Solving for Uz, Initial residual = 0.000352653689333596, Final residual = 2.32465370842182e-05, No Iterations 2
GAMG:  Solving for p, Initial residual = 0.001008287041152, Final residual = 8.85135831111678e-06, No Iterations 5
GAMG:  Solving for p, Initial residual = 6.40820202347881e-05, Final residual = 4.32878866100945e-07, No Iterations 7
GAMG:  Solving for p, Initial residual = 1.09902671763198e-05, Final residual = 9.69519727551799e-08, No Iterations 5
GAMG:  Solving for p, Initial residual = 3.15687079900093e-06, Final residual = 2.17087161385296e-08, No Iterations 5
GAMG:  Solving for p, Initial residual = 9.65709642935687e-07, Final residual = 9.52320547456895e-09, No Iterations 4
GAMG:  Solving for p, Initial residual = 3.4161036738552e-07, Final residual = 9.95664677918817e-09, No Iterations 2
time step continuity errors : sum local = 9.27038992693325e-09, global = 4.76183039027549e-10, cumulative = -2.69127147782881e-05
smoothSolver:  Solving for omega, Initial residual = 1.06342988614171e-05, Final residual = 7.57588933230249e-07, No Iterations 3
smoothSolver:  Solving for k, Initial residual = 6.40936437669832e-05, Final residual = 4.59748386066936e-06, No Iterations 3
ExecutionTime = 59.93 s  ClockTime = 60 s

Time = 326

smoothSolver:  Solving for Ux, Initial residual = 0.000116686464982621, Final residual = 7.69678785268673e-06, No Iterations 2
smoothSolver:  Solving for Uy, Initial residual = 0.000190187209773643, Final residual = 1.36583122943244e-05, No Iterations 2
smoothSolver:  Solving for Uz, Initial residual = 0.000349124458706232, Final residual = 2.31069997114768e-05, No Iterations 2
GAMG:  Solving for p, Initial residual = 0.000993736657959306, Final residual = 8.88552546924111e-06, No Iterations 5
GAMG:  Solving for p, Initial residual = 6.29790589794232e-05, Final residual = 4.47574972424627e-07, No Iterations 7
GAMG:  Solving for p, Initial residual = 1.07394816856199e-05, Final residual = 1.00628512841656e-07, No Iterations 5
GAMG:  Solving for p, Initial residual = 3.07474532301191e-06, Final residual = 2.19516668781605e-08, No Iterations 5
GAMG:  Solving for p, Initial residual = 9.45669497306102e-07, Final residual = 9.49648690292976e-09, No Iterations 4
GAMG:  Solving for p, Initial residual = 3.33403943805596e-07, Final residual = 9.62569533223638e-09, No Iterations 2
time step continuity errors : sum local = 8.96364510306067e-09, global = 6.46776628465153e-10, cumulative = -2.69120680016597e-05
smoothSolver:  Solving for omega, Initial residual = 1.04402978626005e-05, Final residual = 7.4478299831288e-07, No Iterations 3
smoothSolver:  Solving for k, Initial residual = 6.26619536570113e-05, Final residual = 4.49854112524058e-06, No Iterations 3
ExecutionTime = 60.12 s  ClockTime = 60 s


SIMPLE solution converged in 326 iterations

End

Finalising parallel run
